<?xml version="1.0" encoding="UTF-8"?>

<!-- generated on 2026-05-28T13:54:23.361891+09:00 by Eclipse SUMO netconvert 1.26.0
<netconvertConfiguration xmlns:xsi="http://www.w3.org/2001/XMLSchema-instance" xsi:noNamespaceSchemaLocation="http://sumo.dlr.de/xsd/netconvertConfiguration.xsd">

    <input>
        <osm-files value="map.osm"/>
    </input>

    <output>
        <output-file value="tenjin.net.xml"/>
    </output>

    <projection>
        <proj.utm value="true"/>
    </projection>

    <processing>
        <lefthand value="true"/>
    </processing>

    <edge_removal>
        <remove-edges.by-vclass value="pedestrian,subway"/>
    </edge_removal>

</netconvertConfiguration>
-->

<net version="1.20" junctionCornerDetail="5" lefthand="true" limitTurnSpeed="5.50" xmlns:xsi="http://www.w3.org/2001/XMLSchema-instance" xsi:noNamespaceSchemaLocation="http://sumo.dlr.de/xsd/net_file.xsd">

    <location netOffset="-628216.51,-3716738.64" convBoundary="0.00,-0.00,2415.95,1552.44" origBoundary="130.320520,33.545120,130.448562,33.627674" projParameter="+proj=utm +zone=52 +ellps=WGS84 +datum=WGS84 +units=m +no_defs"/>

    <type id="highway.path" priority="1" numLanes="1" speed="5.56" allow="pedestrian bicycle" oneway="0" width="2.00"/>
    <type id="highway.residential" priority="3" numLanes="1" speed="13.89" disallow="tram rail_urban rail rail_electric rail_fast ship container cable_car subway aircraft wheelchair scooter drone" oneway="0"/>
    <type id="highway.secondary" priority="11" numLanes="1" speed="27.78" disallow="tram rail_urban rail rail_electric rail_fast ship container cable_car subway aircraft wheelchair scooter drone" oneway="0"/>
    <type id="highway.service" priority="1" numLanes="1" speed="5.56" allow="pedestrian delivery bicycle" oneway="0"/>
    <type id="highway.service|psv" priority="1" numLanes="1" speed="13.89" allow="pedestrian bus delivery bicycle" oneway="0"/>
    <type id="highway.tertiary" priority="10" numLanes="1" speed="22.22" disallow="tram rail_urban rail rail_electric rail_fast ship container cable_car subway aircraft wheelchair scooter drone" oneway="0"/>
    <type id="highway.trunk" priority="13" numLanes="2" speed="27.78" disallow="pedestrian bicycle tram rail_urban rail rail_electric rail_fast ship container cable_car subway aircraft wheelchair scooter drone" oneway="0"/>
    <type id="highway.unclassified" priority="4" numLanes="1" speed="13.89" disallow="tram rail_urban rail rail_electric rail_fast ship container cable_car subway aircraft wheelchair scooter drone" oneway="0"/>
    <type id="railway.rail" priority="20" numLanes="1" speed="44.44" allow="rail" oneway="1"/>

    <edge id=":11057686633_0" function="internal">
        <lane id=":11057686633_0_0" index="0" disallow="tram rail_urban rail rail_electric rail_fast ship container cable_car subway aircraft wheelchair scooter drone" speed="27.78" length="0.29" width="2.50" shape="2062.49,265.13 2062.28,265.40"/>
        <lane id=":11057686633_0_1" index="1" disallow="tram rail_urban rail rail_electric rail_fast ship container cable_car subway aircraft wheelchair scooter drone" speed="27.78" length="0.29" width="2.50" shape="2064.46,266.67 2064.27,266.92"/>
        <lane id=":11057686633_0_2" index="2" disallow="tram rail_urban rail rail_electric rail_fast ship container cable_car subway aircraft wheelchair scooter drone" speed="27.78" length="0.29" width="2.50" shape="2066.42,268.22 2066.25,268.44"/>
        <lane id=":11057686633_0_3" index="3" disallow="tram rail_urban rail rail_electric rail_fast ship container cable_car subway aircraft wheelchair scooter drone" speed="27.78" length="0.29" width="2.50" shape="2068.39,269.76 2068.24,269.96"/>
    </edge>
    <edge id=":11057686637_0" function="internal">
        <lane id=":11057686637_0_0" index="0" disallow="tram rail_urban rail rail_electric rail_fast ship container cable_car subway aircraft wheelchair scooter drone" speed="27.78" length="0.30" width="2.50" shape="2075.07,248.83 2074.87,249.08"/>
        <lane id=":11057686637_0_1" index="1" disallow="tram rail_urban rail rail_electric rail_fast ship container cable_car subway aircraft wheelchair scooter drone" speed="27.78" length="0.30" width="2.50" shape="2077.05,250.35 2076.86,250.59"/>
        <lane id=":11057686637_0_2" index="2" disallow="tram rail_urban rail rail_electric rail_fast ship container cable_car subway aircraft wheelchair scooter drone" speed="27.78" length="0.30" width="2.50" shape="2079.03,251.87 2078.86,252.10"/>
        <lane id=":11057686637_0_3" index="3" disallow="tram rail_urban rail rail_electric rail_fast ship container cable_car subway aircraft wheelchair scooter drone" speed="27.78" length="0.30" width="2.50" shape="2081.01,253.40 2080.85,253.61"/>
    </edge>
    <edge id=":1107192432_0" function="internal">
        <lane id=":1107192432_0_0" index="0" disallow="tram rail_urban rail rail_electric rail_fast ship container cable_car subway aircraft wheelchair scooter drone" speed="22.22" length="0.31" width="2.50" shape="228.00,677.20 227.69,677.24"/>
        <lane id=":1107192432_0_1" index="1" disallow="tram rail_urban rail rail_electric rail_fast ship container cable_car subway aircraft wheelchair scooter drone" speed="22.22" length="0.31" width="2.50" shape="228.36,679.67 228.06,679.72"/>
    </edge>
    <edge id=":1107192432_2" function="internal">
        <lane id=":1107192432_2_0" index="0" disallow="tram rail_urban rail rail_electric rail_fast ship container cable_car subway aircraft wheelchair scooter drone" speed="22.22" length="0.29" width="2.50" shape="228.81,684.66 229.10,684.62"/>
        <lane id=":1107192432_2_1" index="1" disallow="tram rail_urban rail rail_electric rail_fast ship container cable_car subway aircraft wheelchair scooter drone" speed="22.22" length="0.29" width="2.50" shape="228.44,682.19 228.73,682.14"/>
    </edge>
    <edge id=":1107262843_0" function="internal">
        <lane id=":1107262843_0_0" index="0" disallow="tram rail_urban rail rail_electric rail_fast ship container cable_car subway aircraft wheelchair scooter drone" speed="22.22" length="0.10" width="2.50" shape="1309.23,850.18 1309.26,850.11"/>
    </edge>
    <edge id=":1107262843_1" function="internal">
        <lane id=":1107262843_1_0" index="0" disallow="tram rail_urban rail rail_electric rail_fast ship container cable_car subway aircraft wheelchair scooter drone" speed="22.22" length="0.10" width="2.50" shape="1311.62,850.91 1311.65,850.84"/>
    </edge>
    <edge id=":1107263822_0" function="internal">
        <lane id=":1107263822_0_0" index="0" disallow="tram rail_urban rail rail_electric rail_fast ship container cable_car subway aircraft wheelchair scooter drone" speed="13.89" length="0.10" shape="1543.59,894.34 1543.63,894.25"/>
    </edge>
    <edge id=":1107263822_1" function="internal">
        <lane id=":1107263822_1_0" index="0" disallow="tram rail_urban rail rail_electric rail_fast ship container cable_car subway aircraft wheelchair scooter drone" speed="13.89" length="0.10" shape="1546.57,895.51 1546.61,895.42"/>
    </edge>
    <edge id=":1107264028_0" function="internal">
        <lane id=":1107264028_0_0" index="0" disallow="tram rail_urban rail rail_electric rail_fast ship container cable_car subway aircraft wheelchair scooter drone" speed="13.89" length="0.30" shape="1553.87,865.79 1553.76,866.07"/>
    </edge>
    <edge id=":1107264028_1" function="internal">
        <lane id=":1107264028_1_0" index="0" disallow="tram rail_urban rail rail_electric rail_fast ship container cable_car subway aircraft wheelchair scooter drone" speed="13.89" length="0.30" shape="1556.77,867.15 1556.88,866.87"/>
    </edge>
    <edge id=":1118310031_0" function="internal">
        <lane id=":1118310031_0_0" index="0" disallow="tram rail_urban rail rail_electric rail_fast ship container cable_car subway aircraft wheelchair scooter drone" speed="22.22" length="10.71" width="2.50" shape="2058.59,761.28 2050.48,768.26"/>
    </edge>
    <edge id=":1118310031_1" function="internal">
        <lane id=":1118310031_1_0" index="0" disallow="tram rail_urban rail rail_electric rail_fast ship container cable_car subway aircraft wheelchair scooter drone" speed="9.54" length="2.14" shape="2058.59,761.28 2057.23,762.93"/>
    </edge>
    <edge id=":1118310031_2" function="internal">
        <lane id=":1118310031_2_0" index="0" disallow="tram rail_urban rail rail_electric rail_fast ship container cable_car subway aircraft wheelchair scooter drone" speed="3.23" length="0.89" width="2.50" shape="2058.59,761.28 2058.36,762.14"/>
    </edge>
    <edge id=":1118310031_9" function="internal">
        <lane id=":1118310031_9_0" index="0" disallow="tram rail_urban rail rail_electric rail_fast ship container cable_car subway aircraft wheelchair scooter drone" speed="9.54" length="11.62" shape="2057.23,762.93 2056.60,763.69 2055.52,766.63 2055.36,770.08 2056.11,774.05"/>
    </edge>
    <edge id=":1118310031_10" function="internal">
        <lane id=":1118310031_10_0" index="0" disallow="tram rail_urban rail rail_electric rail_fast ship container cable_car subway aircraft wheelchair scooter drone" speed="3.23" length="2.76" width="2.50" shape="2058.36,762.14 2058.30,762.36 2058.48,763.04 2059.12,763.30 2060.24,763.15"/>
    </edge>
    <edge id=":1118310031_3" function="internal">
        <lane id=":1118310031_3_0" index="0" disallow="tram rail_urban rail rail_electric rail_fast ship container cable_car subway aircraft wheelchair scooter drone" speed="8.47" length="10.59" width="2.50" shape="2059.18,773.17 2058.47,769.82 2058.41,767.04 2059.00,764.81 2060.24,763.15"/>
    </edge>
    <edge id=":1118310031_4" function="internal">
        <lane id=":1118310031_4_0" index="0" disallow="tram rail_urban rail rail_electric rail_fast ship container cable_car subway aircraft wheelchair scooter drone" speed="6.71" length="12.79" width="2.50" shape="2059.18,773.17 2057.58,769.16 2055.60,767.01 2053.23,766.71 2050.48,768.26"/>
    </edge>
    <edge id=":1118310031_5" function="internal">
        <lane id=":1118310031_5_0" index="0" disallow="tram rail_urban rail rail_electric rail_fast ship container cable_car subway aircraft wheelchair scooter drone" speed="3.65" length="4.67" shape="2059.18,773.17 2058.08,772.24 2057.21,772.07 2056.55,772.68 2056.11,774.05"/>
    </edge>
    <edge id=":1118310031_6" function="internal">
        <lane id=":1118310031_6_0" index="0" disallow="tram rail_urban rail rail_electric rail_fast ship container cable_car subway aircraft wheelchair scooter drone" speed="4.98" length="6.73" shape="2052.09,770.17 2053.22,769.68 2054.27,770.15 2055.23,771.61 2056.11,774.05"/>
    </edge>
    <edge id=":1118310031_7" function="internal">
        <lane id=":1118310031_7_0" index="0" disallow="tram rail_urban rail rail_electric rail_fast ship container cable_car subway aircraft wheelchair scooter drone" speed="22.22" length="10.76" width="2.50" shape="2052.09,770.17 2060.24,763.15"/>
    </edge>
    <edge id=":1118310031_8" function="internal">
        <lane id=":1118310031_8_0" index="0" disallow="tram rail_urban rail rail_electric rail_fast ship container cable_car subway aircraft wheelchair scooter drone" speed="3.23" length="0.90" width="2.50" shape="2052.09,770.17 2052.34,769.31"/>
    </edge>
    <edge id=":1118310031_11" function="internal">
        <lane id=":1118310031_11_0" index="0" disallow="tram rail_urban rail rail_electric rail_fast ship container cable_car subway aircraft wheelchair scooter drone" speed="3.23" length="2.75" width="2.50" shape="2052.34,769.31 2052.40,769.09 2052.24,768.41 2051.60,768.14 2050.48,768.26"/>
    </edge>
    <edge id=":1118311214_0" function="internal">
        <lane id=":1118311214_0_0" index="0" disallow="tram rail_urban rail rail_electric rail_fast ship container cable_car subway aircraft wheelchair scooter drone" speed="5.51" length="8.34" shape="1764.52,1350.63 1763.41,1352.51 1761.98,1353.17 1760.22,1352.60 1758.14,1350.82"/>
    </edge>
    <edge id=":1118311214_1" function="internal">
        <lane id=":1118311214_1_0" index="0" disallow="tram rail_urban rail rail_electric rail_fast ship container cable_car subway aircraft wheelchair scooter drone" speed="27.78" length="14.05" shape="1764.52,1350.63 1763.13,1353.96 1761.58,1357.02 1759.75,1359.91 1757.54,1362.75"/>
    </edge>
    <edge id=":1118311214_2" function="internal">
        <lane id=":1118311214_2_0" index="0" disallow="tram rail_urban rail rail_electric rail_fast ship container cable_car subway aircraft wheelchair scooter drone" speed="3.65" length="1.44" shape="1764.52,1350.63 1764.84,1352.04"/>
    </edge>
    <edge id=":1118311214_9" function="internal">
        <lane id=":1118311214_9_0" index="0" disallow="tram rail_urban rail rail_electric rail_fast ship container cable_car subway aircraft wheelchair scooter drone" speed="3.65" length="3.23" shape="1764.84,1352.04 1765.44,1352.70 1766.33,1352.61 1767.51,1351.77"/>
    </edge>
    <edge id=":1118311214_3" function="internal">
        <lane id=":1118311214_3_0" index="0" disallow="tram rail_urban rail rail_electric rail_fast ship container cable_car subway aircraft wheelchair scooter drone" speed="27.78" length="15.14" shape="1759.97,1364.83 1762.27,1361.84 1764.29,1358.63 1766.04,1355.25 1767.51,1351.77"/>
    </edge>
    <edge id=":1118311214_4" function="internal">
        <lane id=":1118311214_4_0" index="0" disallow="tram rail_urban rail rail_electric rail_fast ship container cable_car subway aircraft wheelchair scooter drone" speed="8.74" length="4.01" shape="1759.97,1364.83 1761.87,1361.59 1761.90,1361.33"/>
    </edge>
    <edge id=":1118311214_5" function="internal">
        <lane id=":1118311214_5_0" index="0" disallow="tram rail_urban rail rail_electric rail_fast ship container cable_car subway aircraft wheelchair scooter drone" speed="3.65" length="1.44" shape="1759.97,1364.83 1760.14,1363.40"/>
    </edge>
    <edge id=":1118311214_10" function="internal">
        <lane id=":1118311214_10_0" index="0" disallow="tram rail_urban rail rail_electric rail_fast ship container cable_car subway aircraft wheelchair scooter drone" speed="8.74" length="11.68" shape="1761.90,1361.33 1762.20,1358.17 1760.96,1354.58 1758.14,1350.82"/>
    </edge>
    <edge id=":1118311214_11" function="internal">
        <lane id=":1118311214_11_0" index="0" disallow="tram rail_urban rail rail_electric rail_fast ship container cable_car subway aircraft wheelchair scooter drone" speed="3.65" length="3.23" shape="1760.14,1363.40 1759.79,1362.57 1758.92,1362.36 1757.54,1362.75"/>
    </edge>
    <edge id=":1118311214_6" function="internal">
        <lane id=":1118311214_6_0" index="0" disallow="tram rail_urban rail rail_electric rail_fast ship container cable_car subway aircraft wheelchair scooter drone" speed="7.40" length="10.96" shape="1755.80,1353.00 1757.88,1355.72 1758.87,1358.25 1758.75,1360.59 1757.54,1362.75"/>
    </edge>
    <edge id=":1118311214_7" function="internal">
        <lane id=":1118311214_7_0" index="0" disallow="tram rail_urban rail rail_electric rail_fast ship container cable_car subway aircraft wheelchair scooter drone" speed="7.26" length="15.49" shape="1755.80,1353.00 1759.53,1356.13 1762.72,1356.96 1765.38,1355.51 1767.51,1351.77"/>
    </edge>
    <edge id=":1118311214_8" function="internal">
        <lane id=":1118311214_8_0" index="0" disallow="tram rail_urban rail rail_electric rail_fast ship container cable_car subway aircraft wheelchair scooter drone" speed="3.65" length="4.67" shape="1755.80,1353.00 1757.21,1353.33 1758.06,1353.08 1758.38,1352.24 1758.14,1350.82"/>
    </edge>
    <edge id=":1118311215_0" function="internal">
        <lane id=":1118311215_0_0" index="0" disallow="tram rail_urban rail rail_electric rail_fast ship container cable_car subway aircraft wheelchair scooter drone" speed="7.26" length="10.15" shape="1706.17,1288.38 1704.47,1290.17 1702.39,1291.07 1699.94,1291.07 1697.11,1290.18"/>
    </edge>
    <edge id=":1118311215_1" function="internal">
        <lane id=":1118311215_1_0" index="0" disallow="tram rail_urban rail rail_electric rail_fast ship container cable_car subway aircraft wheelchair scooter drone" speed="22.22" length="14.75" width="2.50" shape="1706.17,1288.38 1704.04,1291.42 1701.84,1294.34 1699.54,1297.20 1697.15,1300.03"/>
    </edge>
    <edge id=":1118311215_2" function="internal">
        <lane id=":1118311215_2_0" index="0" disallow="tram rail_urban rail rail_electric rail_fast ship container cable_car subway aircraft wheelchair scooter drone" speed="8.51" length="2.46" shape="1706.17,1288.38 1705.06,1290.58"/>
    </edge>
    <edge id=":1118311215_3" function="internal">
        <lane id=":1118311215_3_0" index="0" disallow="tram rail_urban rail rail_electric rail_fast ship container cable_car subway aircraft wheelchair scooter drone" speed="3.23" length="0.89" width="2.50" shape="1706.17,1288.38 1706.16,1289.27"/>
    </edge>
    <edge id=":1118311215_16" function="internal">
        <lane id=":1118311215_16_0" index="0" disallow="tram rail_urban rail rail_electric rail_fast ship container cable_car subway aircraft wheelchair scooter drone" speed="8.51" length="11.14" shape="1705.06,1290.58 1704.50,1291.69 1704.07,1294.87 1704.88,1297.91 1706.92,1300.81"/>
    </edge>
    <edge id=":1118311215_17" function="internal">
        <lane id=":1118311215_17_0" index="0" disallow="tram rail_urban rail rail_electric rail_fast ship container cable_car subway aircraft wheelchair scooter drone" speed="3.23" length="2.76" width="2.50" shape="1706.16,1289.27 1706.16,1289.50 1706.50,1290.11 1707.20,1290.20 1708.24,1289.77"/>
    </edge>
    <edge id=":1118311215_4" function="internal">
        <lane id=":1118311215_4_0" index="0" disallow="tram rail_urban rail rail_electric rail_fast ship container cable_car subway aircraft wheelchair scooter drone" speed="7.33" length="9.73" width="2.50" shape="1709.25,1298.63 1707.67,1296.45 1706.97,1294.25 1707.16,1292.02 1708.24,1289.77"/>
    </edge>
    <edge id=":1118311215_5" function="internal">
        <lane id=":1118311215_5_0" index="0" disallow="tram rail_urban rail rail_electric rail_fast ship container cable_car subway aircraft wheelchair scooter drone" speed="13.89" length="14.88" shape="1709.25,1298.63 1706.55,1296.05 1703.61,1293.79 1700.45,1291.84 1697.11,1290.18"/>
    </edge>
    <edge id=":1118311215_6" function="internal">
        <lane id=":1118311215_6_0" index="0" disallow="tram rail_urban rail rail_electric rail_fast ship container cable_car subway aircraft wheelchair scooter drone" speed="7.73" length="14.21" width="2.50" shape="1709.25,1298.63 1706.37,1296.45 1703.40,1295.96 1700.32,1297.15 1697.15,1300.03"/>
    </edge>
    <edge id=":1118311215_7" function="internal">
        <lane id=":1118311215_7_0" index="0" disallow="tram rail_urban rail rail_electric rail_fast ship container cable_car subway aircraft wheelchair scooter drone" speed="3.65" length="4.67" shape="1709.25,1298.63 1707.85,1298.30 1706.99,1298.55 1706.68,1299.39 1706.92,1300.81"/>
    </edge>
    <edge id=":1118311215_8" function="internal">
        <lane id=":1118311215_8_0" index="0" disallow="tram rail_urban rail rail_electric rail_fast ship container cable_car subway aircraft wheelchair scooter drone" speed="6.28" length="9.24" shape="1699.04,1301.67 1701.09,1299.81 1703.09,1299.05 1705.03,1299.38 1706.92,1300.81"/>
    </edge>
    <edge id=":1118311215_9" function="internal">
        <lane id=":1118311215_9_0" index="0" disallow="tram rail_urban rail rail_electric rail_fast ship container cable_car subway aircraft wheelchair scooter drone" speed="22.22" length="15.05" width="2.50" shape="1699.04,1301.67 1701.46,1298.80 1703.82,1295.86 1706.08,1292.85 1708.24,1289.77"/>
    </edge>
    <edge id=":1118311215_10" function="internal">
        <lane id=":1118311215_10_0" index="0" disallow="tram rail_urban rail rail_electric rail_fast ship container cable_car subway aircraft wheelchair scooter drone" speed="7.27" length="3.00" shape="1699.04,1301.67 1700.69,1299.17"/>
    </edge>
    <edge id=":1118311215_11" function="internal">
        <lane id=":1118311215_11_0" index="0" disallow="tram rail_urban rail rail_electric rail_fast ship container cable_car subway aircraft wheelchair scooter drone" speed="3.23" length="0.90" width="2.50" shape="1699.04,1301.67 1699.15,1300.78"/>
    </edge>
    <edge id=":1118311215_18" function="internal">
        <lane id=":1118311215_18_0" index="0" disallow="tram rail_urban rail rail_electric rail_fast ship container cable_car subway aircraft wheelchair scooter drone" speed="7.27" length="11.43" shape="1700.69,1299.17 1701.41,1298.07 1701.88,1294.95 1700.45,1292.33 1697.11,1290.18"/>
    </edge>
    <edge id=":1118311215_19" function="internal">
        <lane id=":1118311215_19_0" index="0" disallow="tram rail_urban rail rail_electric rail_fast ship container cable_car subway aircraft wheelchair scooter drone" speed="3.23" length="2.75" width="2.50" shape="1699.15,1300.78 1699.18,1300.55 1698.91,1299.91 1698.23,1299.73 1697.15,1300.03"/>
    </edge>
    <edge id=":1118311215_12" function="internal">
        <lane id=":1118311215_12_0" index="0" disallow="tram rail_urban rail rail_electric rail_fast ship container cable_car subway aircraft wheelchair scooter drone" speed="5.86" length="8.74" width="2.50" shape="1695.81,1293.11 1697.88,1294.42 1698.80,1296.01 1698.55,1297.88 1697.15,1300.03"/>
    </edge>
    <edge id=":1118311215_13" function="internal">
        <lane id=":1118311215_13_0" index="0" disallow="tram rail_urban rail rail_electric rail_fast ship container cable_car subway aircraft wheelchair scooter drone" speed="13.89" length="13.61" shape="1695.81,1293.11 1698.99,1294.65 1701.80,1296.35 1704.38,1298.35 1706.92,1300.81"/>
    </edge>
    <edge id=":1118311215_14" function="internal">
        <lane id=":1118311215_14_0" index="0" disallow="tram rail_urban rail rail_electric rail_fast ship container cable_car subway aircraft wheelchair scooter drone" speed="8.55" length="14.17" width="2.50" shape="1695.81,1293.11 1699.53,1294.20 1702.84,1294.01 1705.74,1292.54 1708.24,1289.77"/>
    </edge>
    <edge id=":1118311215_15" function="internal">
        <lane id=":1118311215_15_0" index="0" disallow="tram rail_urban rail rail_electric rail_fast ship container cable_car subway aircraft wheelchair scooter drone" speed="3.65" length="4.67" shape="1695.81,1293.11 1697.23,1292.86 1697.92,1292.29 1697.88,1291.40 1697.11,1290.18"/>
    </edge>
    <edge id=":1118311225_0" function="internal">
        <lane id=":1118311225_0_0" index="0" disallow="tram rail_urban rail rail_electric rail_fast ship container cable_car subway aircraft wheelchair scooter drone" speed="5.98" length="8.43" width="2.50" shape="1593.20,1417.14 1591.36,1418.61 1589.55,1419.06 1587.78,1418.50 1586.04,1416.92"/>
    </edge>
    <edge id=":1118311225_1" function="internal">
        <lane id=":1118311225_1_0" index="0" disallow="tram rail_urban rail rail_electric rail_fast ship container cable_car subway aircraft wheelchair scooter drone" speed="3.23" length="3.65" width="2.50" shape="1593.20,1417.14 1593.01,1418.25 1593.25,1418.91 1593.92,1419.11 1595.02,1418.85"/>
    </edge>
    <edge id=":1118311225_2" function="internal">
        <lane id=":1118311225_2_0" index="0" disallow="tram rail_urban rail rail_electric rail_fast ship container cable_car subway aircraft wheelchair scooter drone" speed="6.76" length="9.05" width="2.50" shape="1594.32,1426.98 1593.15,1425.00 1592.88,1422.98 1593.50,1420.93 1595.02,1418.85"/>
    </edge>
    <edge id=":1118311225_3" function="internal">
        <lane id=":1118311225_3_0" index="0" disallow="tram rail_urban rail rail_electric rail_fast ship container cable_car subway aircraft wheelchair scooter drone" speed="27.78" length="13.03" width="2.50" shape="1594.32,1426.98 1586.04,1416.92"/>
        <lane id=":1118311225_3_1" index="1" disallow="tram rail_urban rail rail_electric rail_fast ship container cable_car subway aircraft wheelchair scooter drone" speed="27.78" length="13.03" width="2.50" shape="1592.38,1428.56 1584.11,1418.51"/>
    </edge>
    <edge id=":1118311231_0" function="internal">
        <lane id=":1118311231_0_0" index="0" disallow="tram rail_urban rail rail_electric rail_fast ship container cable_car subway aircraft wheelchair scooter drone" speed="3.65" length="0.95" shape="1674.94,1280.35 1674.00,1280.51"/>
    </edge>
    <edge id=":1118311231_2" function="internal">
        <lane id=":1118311231_2_0" index="0" disallow="tram rail_urban rail rail_electric rail_fast ship container cable_car subway aircraft wheelchair scooter drone" speed="3.65" length="3.72" shape="1674.00,1280.51 1673.52,1280.60 1672.83,1281.17 1672.87,1282.06 1673.64,1283.28"/>
    </edge>
    <edge id=":1118311231_1" function="internal">
        <lane id=":1118311231_1_0" index="0" disallow="tram rail_urban rail rail_electric rail_fast ship container cable_car subway aircraft wheelchair scooter drone" speed="13.89" length="3.35" shape="1671.66,1280.74 1672.40,1281.28 1672.66,1281.98 1672.92,1282.69 1673.64,1283.28"/>
    </edge>
    <edge id=":1118311432_0" function="internal">
        <lane id=":1118311432_0_0" index="0" disallow="tram rail_urban rail rail_electric rail_fast ship container cable_car subway aircraft wheelchair scooter drone" speed="22.22" length="0.35" width="2.50" shape="1835.00,1232.72 1834.53,1232.48"/>
        <lane id=":1118311432_0_1" index="1" disallow="tram rail_urban rail rail_electric rail_fast ship container cable_car subway aircraft wheelchair scooter drone" speed="22.22" length="0.35" width="2.50" shape="1836.13,1230.49 1835.81,1230.34"/>
        <lane id=":1118311432_0_2" index="2" disallow="tram rail_urban rail rail_electric rail_fast ship container cable_car subway aircraft wheelchair scooter drone" speed="22.22" length="0.35" width="2.50" shape="1837.26,1228.26 1837.10,1228.19"/>
    </edge>
    <edge id=":1118311538_0" function="internal">
        <lane id=":1118311538_0_0" index="0" disallow="tram rail_urban rail rail_electric rail_fast ship container cable_car subway aircraft wheelchair scooter drone" speed="6.03" length="7.82" shape="1732.33,1249.65 1730.74,1251.52 1729.12,1252.52 1727.48,1252.67 1725.81,1251.96"/>
    </edge>
    <edge id=":1118311538_1" function="internal">
        <lane id=":1118311538_1_0" index="0" disallow="tram rail_urban rail rail_electric rail_fast ship container cable_car subway aircraft wheelchair scooter drone" speed="22.22" length="11.16" width="2.50" shape="1732.33,1249.65 1726.05,1258.87"/>
    </edge>
    <edge id=":1118311538_2" function="internal">
        <lane id=":1118311538_2_0" index="0" disallow="tram rail_urban rail rail_electric rail_fast ship container cable_car subway aircraft wheelchair scooter drone" speed="3.23" length="0.90" width="2.50" shape="1732.33,1249.65 1732.32,1250.54"/>
    </edge>
    <edge id=":1118311538_6" function="internal">
        <lane id=":1118311538_6_0" index="0" disallow="tram rail_urban rail rail_electric rail_fast ship container cable_car subway aircraft wheelchair scooter drone" speed="3.23" length="2.75" width="2.50" shape="1732.32,1250.54 1732.31,1250.77 1732.65,1251.38 1733.34,1251.48 1734.39,1251.06"/>
    </edge>
    <edge id=":1118311538_3" function="internal">
        <lane id=":1118311538_3_0" index="0" disallow="tram rail_urban rail rail_electric rail_fast ship container cable_car subway aircraft wheelchair scooter drone" speed="22.22" length="11.14" width="2.50" shape="1728.12,1260.27 1734.39,1251.06"/>
    </edge>
    <edge id=":1118311538_4" function="internal">
        <lane id=":1118311538_4_0" index="0" disallow="tram rail_urban rail rail_electric rail_fast ship container cable_car subway aircraft wheelchair scooter drone" speed="6.69" length="2.13" shape="1728.12,1260.27 1729.00,1258.33"/>
    </edge>
    <edge id=":1118311538_5" function="internal">
        <lane id=":1118311538_5_0" index="0" disallow="tram rail_urban rail rail_electric rail_fast ship container cable_car subway aircraft wheelchair scooter drone" speed="3.23" length="0.90" width="2.50" shape="1728.12,1260.27 1728.13,1259.37"/>
    </edge>
    <edge id=":1118311538_7" function="internal">
        <lane id=":1118311538_7_0" index="0" disallow="tram rail_urban rail rail_electric rail_fast ship container cable_car subway aircraft wheelchair scooter drone" speed="6.69" length="7.67" shape="1729.00,1258.33 1729.14,1258.02 1729.10,1255.88 1727.99,1253.86 1725.81,1251.96"/>
    </edge>
    <edge id=":1118311538_8" function="internal">
        <lane id=":1118311538_8_0" index="0" disallow="tram rail_urban rail rail_electric rail_fast ship container cable_car subway aircraft wheelchair scooter drone" speed="3.23" length="2.75" width="2.50" shape="1728.13,1259.37 1728.13,1259.14 1727.78,1258.53 1727.09,1258.44 1726.05,1258.87"/>
    </edge>
    <edge id=":1118311860_0" function="internal">
        <lane id=":1118311860_0_0" index="0" disallow="tram rail_urban rail rail_electric rail_fast ship container cable_car subway aircraft wheelchair scooter drone" speed="13.89" length="11.21" shape="1626.48,1195.62 1622.57,1206.13"/>
    </edge>
    <edge id=":1118311860_1" function="internal">
        <lane id=":1118311860_1_0" index="0" disallow="tram rail_urban rail rail_electric rail_fast ship container cable_car subway aircraft wheelchair scooter drone" speed="6.29" length="3.24" shape="1629.02,1202.55 1626.92,1202.14 1625.85,1202.42"/>
    </edge>
    <edge id=":1118311860_2" function="internal">
        <lane id=":1118311860_2_0" index="0" disallow="tram rail_urban rail rail_electric rail_fast ship container cable_car subway aircraft wheelchair scooter drone" speed="6.29" length="5.16" shape="1625.85,1202.42 1625.15,1202.60 1623.70,1203.93 1622.57,1206.13"/>
    </edge>
    <edge id=":1118311861_0" function="internal">