<?xml version="1.0" encoding="UTF-8"?>

<!-- generated on 2026-06-11T14:27:06.063188+09:00 by Eclipse SUMO netedit 1.26.0
<neteditConfiguration xmlns:xsi="http://www.w3.org/2001/XMLSchema-instance" xsi:noNamespaceSchemaLocation="http://sumo.dlr.de/xsd/neteditConfiguration.xsd">

    <input>
        <sumo-net-file value="C:\Users\School\Documents\SumoProjects\Class\project\tenjin.net.xml"/>
    </input>

    <output>
        <output-file value="C:\Users\School\Documents\SumoProjects\Class\project\tenjin.net.xml"/>
    </output>

    <processing>
        <geometry.min-radius.fix.railways value="false"/>
        <geometry.avoid-overlap value="false"/>
        <geometry.max-grade.fix value="false"/>
        <offset.disable-normalization value="true"/>
        <lefthand value="1"/>
    </processing>

    <junctions>
        <no-turnarounds value="true"/>
        <junctions.corner-detail value="5"/>
        <junctions.limit-turn-speed value="5.50"/>
        <rectangular-lane-cut value="0"/>
    </junctions>

    <pedestrian>
        <walkingareas value="0"/>
    </pedestrian>

</neteditConfiguration>
-->

<net version="1.20" junctionCornerDetail="5" lefthand="true" limitTurnSpeed="5.50" avoidOverlap="0" xmlns:xsi="http://www.w3.org/2001/XMLSchema-instance" xsi:noNamespaceSchemaLocation="http://sumo.dlr.de/xsd/net_file.xsd">

    <location netOffset="-628216.51,-3716738.64" convBoundary="1374.41,29.03,2413.32,1599.71" origBoundary="130.320520,33.545120,130.448562,33.627674" projParameter="+proj=utm +zone=52 +ellps=WGS84 +datum=WGS84 +units=m +no_defs"/>

    <type id="highway.residential" priority="3" numLanes="1" speed="13.89" oneway="0"/>
    <type id="highway.secondary" priority="11" numLanes="1" speed="27.78" oneway="0"/>
    <type id="highway.tertiary" priority="10" numLanes="1" speed="22.22" oneway="0"/>
    <type id="highway.trunk" priority="13" numLanes="2" speed="27.78" disallow="pedestrian bicycle" oneway="0"/>
    <type id="highway.unclassified" priority="4" numLanes="1" speed="13.89" oneway="0"/>

    <edge id=":1118310031_0" function="internal">
        <lane id=":1118310031_0_0" index="0" speed="22.22" length="10.71" width="2.50" shape="2058.59,761.28 2050.48,768.26"/>
    </edge>
    <edge id=":1118310031_1" function="internal">
        <lane id=":1118310031_1_0" index="0" speed="9.54" length="2.14" shape="2058.59,761.28 2057.23,762.93"/>
    </edge>
    <edge id=":1118310031_2" function="internal">
        <lane id=":1118310031_2_0" index="0" speed="3.23" length="0.89" width="2.50" shape="2058.59,761.28 2058.36,762.14"/>
    </edge>
    <edge id=":1118310031_9" function="internal">
        <lane id=":1118310031_9_0" index="0" speed="9.54" length="11.62" shape="2057.23,762.93 2056.60,763.69 2055.52,766.63 2055.36,770.08 2056.11,774.05"/>
    </edge>
    <edge id=":1118310031_10" function="internal">
        <lane id=":1118310031_10_0" index="0" speed="3.23" length="2.76" width="2.50" shape="2058.36,762.14 2058.30,762.36 2058.48,763.04 2059.12,763.30 2060.24,763.15"/>
    </edge>
    <edge id=":1118310031_3" function="internal">
        <lane id=":1118310031_3_0" index="0" speed="8.47" length="10.59" width="2.50" shape="2059.18,773.17 2058.47,769.82 2058.41,767.04 2059.00,764.81 2060.24,763.15"/>
    </edge>
    <edge id=":1118310031_4" function="internal">
        <lane id=":1118310031_4_0" index="0" speed="6.71" length="12.79" width="2.50" shape="2059.18,773.17 2057.58,769.16 2055.60,767.01 2053.23,766.71 2050.48,768.26"/>
    </edge>
    <edge id=":1118310031_5" function="internal">
        <lane id=":1118310031_5_0" index="0" speed="3.65" length="4.67" shape="2059.18,773.17 2058.08,772.24 2057.21,772.07 2056.55,772.68 2056.11,774.05"/>
    </edge>
    <edge id=":1118310031_6" function="internal">
        <lane id=":1118310031_6_0" index="0" speed="4.98" length="6.73" shape="2052.09,770.17 2053.22,769.68 2054.27,770.15 2055.23,771.61 2056.11,774.05"/>
    </edge>
    <edge id=":1118310031_7" function="internal">
        <lane id=":1118310031_7_0" index="0" speed="22.22" length="10.76" width="2.50" shape="2052.09,770.17 2060.24,763.15"/>
    </edge>
    <edge id=":1118310031_8" function="internal">
        <lane id=":1118310031_8_0" index="0" speed="3.23" length="0.90" width="2.50" shape="2052.09,770.17 2052.34,769.31"/>
    </edge>
    <edge id=":1118310031_11" function="internal">
        <lane id=":1118310031_11_0" index="0" speed="3.23" length="2.75" width="2.50" shape="2052.34,769.31 2052.40,769.09 2052.24,768.41 2051.60,768.14 2050.48,768.26"/>
    </edge>
    <edge id=":1118311215_0" function="internal">
        <lane id=":1118311215_0_0" index="0" speed="7.46" length="10.76" shape="1706.70,1287.58 1704.78,1289.73 1702.58,1290.89 1700.09,1291.07 1697.31,1290.27"/>
    </edge>
    <edge id=":1118311215_1" function="internal">
        <lane id=":1118311215_1_0" index="0" speed="18.05" length="15.30" shape="1706.70,1287.58 1704.58,1290.73 1702.47,1293.96 1700.47,1297.24 1698.65,1300.57"/>
    </edge>
    <edge id=":1118311215_2" function="internal">
        <lane id=":1118311215_2_0" index="0" speed="7.39" length="14.04" shape="1706.70,1287.58 1704.85,1291.29 1704.69,1294.43 1706.21,1296.98 1709.43,1298.96"/>
    </edge>
    <edge id=":1118311215_3" function="internal">
        <lane id=":1118311215_3_0" index="0" speed="3.23" length="3.65" width="2.50" shape="1706.70,1287.58 1706.70,1288.71 1707.04,1289.31 1707.74,1289.40 1708.78,1288.98"/>
    </edge>
    <edge id=":1118311215_4" function="internal">
        <lane id=":1118311215_4_0" index="0" speed="6.02" length="8.74" width="2.50" shape="1710.66,1296.01 1708.60,1294.76 1707.60,1293.17 1707.66,1291.25 1708.78,1288.98"/>
    </edge>
    <edge id=":1118311215_5" function="internal">
        <lane id=":1118311215_5_0" index="0" speed="13.89" length="14.52" shape="1710.66,1296.01 1697.31,1290.27"/>
    </edge>
    <edge id=":1118311215_6" function="internal">
        <lane id=":1118311215_6_0" index="0" speed="8.28" length="14.42" shape="1710.66,1296.01 1706.90,1295.04 1703.65,1295.48 1700.90,1297.32 1698.65,1300.57"/>
    </edge>
    <edge id=":1118311215_7" function="internal">
        <lane id=":1118311215_7_0" index="0" speed="6.85" length="9.53" shape="1701.50,1302.02 1702.99,1299.86 1704.81,1298.63 1706.96,1298.33 1709.43,1298.96"/>
    </edge>
    <edge id=":1118311215_8" function="internal">
        <lane id=":1118311215_8_0" index="0" speed="18.05" length="14.94" width="2.50" shape="1701.50,1302.02 1703.20,1298.68 1704.94,1295.38 1706.78,1292.14 1708.78,1288.98"/>
    </edge>
    <edge id=":1118311215_9" function="internal">
        <lane id=":1118311215_9_0" index="0" speed="7.91" length="14.39" shape="1701.50,1302.02 1702.77,1298.25 1702.50,1295.04 1700.68,1292.38 1697.31,1290.27"/>
    </edge>
    <edge id=":1118311215_10" function="internal">
        <lane id=":1118311215_10_0" index="0" speed="6.40" length="9.04" shape="1696.02,1293.20 1698.13,1294.52 1699.27,1296.19 1699.45,1298.21 1698.65,1300.57"/>
    </edge>
    <edge id=":1118311215_11" function="internal">
        <lane id=":1118311215_11_0" index="0" speed="13.89" length="14.60" shape="1696.02,1293.20 1709.43,1298.96"/>
    </edge>
    <edge id=":1118311215_12" function="internal">
        <lane id=":1118311215_12_0" index="0" speed="8.73" length="14.80" width="2.50" shape="1696.02,1293.20 1699.68,1294.20 1703.02,1293.83 1706.06,1292.09 1708.78,1288.98"/>
    </edge>
    <edge id=":1118311215_13" function="internal">
        <lane id=":1118311215_13_0" index="0" speed="3.65" length="4.67" shape="1696.02,1293.20 1697.44,1292.95 1698.13,1292.38 1698.09,1291.49 1697.31,1290.27"/>
    </edge>
    <edge id=":1118311231_0" function="internal">
        <lane id=":1118311231_0_0" index="0" speed="3.65" length="0.95" shape="1674.94,1280.35 1674.00,1280.51"/>
    </edge>
    <edge id=":1118311231_2" function="internal">
        <lane id=":1118311231_2_0" index="0" speed="3.65" length="3.72" shape="1674.00,1280.51 1673.52,1280.60 1672.83,1281.17 1672.87,1282.06 1673.64,1283.28"/>
    </edge>
    <edge id=":1118311231_1" function="internal">
        <lane id=":1118311231_1_0" index="0" speed="13.89" length="3.35" shape="1671.66,1280.74 1672.40,1281.28 1672.66,1281.98 1672.92,1282.69 1673.64,1283.28"/>
    </edge>
    <edge id=":1118311432_0" function="internal">
        <lane id=":1118311432_0_0" index="0" speed="22.22" length="0.35" width="2.50" shape="1835.00,1232.72 1834.53,1232.48"/>
        <lane id=":1118311432_0_1" index="1" speed="22.22" length="0.35" width="2.50" shape="1836.13,1230.49 1835.81,1230.34"/>
        <lane id=":1118311432_0_2" index="2" speed="22.22" length="0.35" width="2.50" shape="1837.26,1228.26 1837.10,1228.19"/>
    </edge>
    <edge id=":1118311538_0" function="internal">
        <lane id=":1118311538_0_0" index="0" speed="6.03" length="7.82" shape="1732.33,1249.65 1730.74,1251.52 1729.12,1252.52 1727.48,1252.67 1725.81,1251.96"/>
    </edge>
    <edge id=":1118311538_1" function="internal">
        <lane id=":1118311538_1_0" index="0" speed="22.22" length="11.16" width="2.50" shape="1732.33,1249.65 1726.05,1258.87"/>
    </edge>
    <edge id=":1118311538_2" function="internal">
        <lane id=":1118311538_2_0" index="0" speed="3.23" length="0.90" width="2.50" shape="1732.33,1249.65 1732.32,1250.54"/>
    </edge>
    <edge id=":1118311538_6" function="internal">
        <lane id=":1118311538_6_0" index="0" speed="3.23" length="2.75" width="2.50" shape="1732.32,1250.54 1732.31,1250.77 1732.65,1251.38 1733.34,1251.48 1734.39,1251.06"/>
    </edge>
    <edge id=":1118311538_3" function="internal">
        <lane id=":1118311538_3_0" index="0" speed="22.22" length="11.14" width="2.50" shape="1728.12,1260.27 1734.39,1251.06"/>
    </edge>
    <edge id=":1118311538_4" function="internal">
        <lane id=":1118311538_4_0" index="0" speed="6.69" length="2.13" shape="1728.12,1260.27 1729.00,1258.33"/>
    </edge>
    <edge id=":1118311538_5" function="internal">
        <lane id=":1118311538_5_0" index="0" speed="3.23" length="0.90" width="2.50" shape="1728.12,1260.27 1728.13,1259.37"/>
    </edge>
    <edge id=":1118311538_7" function="internal">
        <lane id=":1118311538_7_0" index="0" speed="6.69" length="7.67" shape="1729.00,1258.33 1729.14,1258.02 1729.10,1255.88 1727.99,1253.86 1725.81,1251.96"/>
    </edge>
    <edge id=":1118311538_8" function="internal">
        <lane id=":1118311538_8_0" index="0" speed="3.23" length="2.75" width="2.50" shape="1728.13,1259.37 1728.13,1259.14 1727.78,1258.53 1727.09,1258.44 1726.05,1258.87"/>
    </edge>
    <edge id=":1118311860_0" function="internal">
        <lane id=":1118311860_0_0" index="0" speed="13.89" length="11.21" shape="1626.48,1195.62 1622.57,1206.13"/>
    </edge>
    <edge id=":1118311860_1" function="internal">
        <lane id=":1118311860_1_0" index="0" speed="6.29" length="3.24" shape="1629.02,1202.55 1626.92,1202.14 1625.85,1202.42"/>
    </edge>
    <edge id=":1118311860_2" function="internal">
        <lane id=":1118311860_2_0" index="0" speed="6.29" length="5.16" shape="1625.85,1202.42 1625.15,1202.60 1623.70,1203.93 1622.57,1206.13"/>
    </edge>
    <edge id=":1118311861_0" function="internal">
        <lane id=":1118311861_0_0" index="0" speed="27.78" length="11.22" shape="2065.03,957.51 2060.65,967.84"/>
    </edge>
    <edge id=":1118311861_1" function="internal">
        <lane id=":1118311861_1_0" index="0" speed="3.65" length="1.44" shape="2065.03,957.51 2065.30,958.93"/>
    </edge>
    <edge id=":1118311861_6" function="internal">
        <lane id=":1118311861_6_0" index="0" speed="3.65" length="3.23" shape="2065.30,958.93 2065.88,959.61 2066.77,959.56 2067.98,958.77"/>
    </edge>
    <edge id=":1118311861_2" function="internal">
        <lane id=":1118311861_2_0" index="0" speed="6.00" length="7.65" shape="2069.33,965.38 2067.91,964.43 2067.21,963.01 2067.23,961.13 2067.98,958.77"/>
    </edge>
    <edge id=":1118311861_3" function="internal">
        <lane id=":1118311861_3_0" index="0" speed="6.92" length="10.20" shape="2069.33,965.38 2066.34,964.55 2063.89,964.69 2062.00,965.78 2060.65,967.84"/>
    </edge>
    <edge id=":1118311861_4" function="internal">
        <lane id=":1118311861_4_0" index="0" speed="27.78" length="11.21" shape="2063.60,969.09 2067.98,958.77"/>
    </edge>
    <edge id=":1118311861_5" function="internal">
        <lane id=":1118311861_5_0" index="0" speed="3.65" length="1.44" shape="2063.60,969.09 2063.33,967.67"/>
    </edge>
    <edge id=":1118311861_7" function="internal">
        <lane id=":1118311861_7_0" index="0" speed="3.65" length="3.23" shape="2063.33,967.67 2062.75,966.99 2061.85,967.05 2060.65,967.84"/>
    </edge>
    <edge id=":1118311981_0" function="internal">
        <lane id=":1118311981_0_0" index="0" speed="3.91" length="2.48" shape="2158.43,1027.67 2157.85,1028.00 2157.29,1028.08 2156.75,1027.90 2156.24,1027.46"/>
    </edge>
    <edge id=":1118311982_0" function="internal">
        <lane id=":1118311982_0_0" index="0" speed="13.89" length="9.22" shape="2287.62,933.23 2280.25,927.68"/>
    </edge>
    <edge id=":1118311982_1" function="internal">
        <lane id=":1118311982_1_0" index="0" speed="6.91" length="8.01" shape="2287.62,933.23 2285.89,932.35 2284.08,932.16 2282.19,932.65 2280.22,933.84"/>
    </edge>
    <edge id=":1118311985_0" function="internal">
        <lane id=":1118311985_0_0" index="0" disallow="pedestrian bicycle" speed="6.32" length="7.87" shape="2311.96,892.36 2313.79,893.63 2314.87,895.14 2315.21,896.88 2314.81,898.85"/>
    </edge>
    <edge id=":1118311985_1" function="internal">
        <lane id=":1118311985_1_0" index="0" disallow="pedestrian bicycle" speed="3.09" length="3.36" width="2.30" shape="2313.04,890.32 2314.07,890.22 2314.59,889.84 2314.60,889.20 2314.11,888.29"/>
    </edge>
    <edge id=":1118311999_0" function="internal">
        <lane id=":1118311999_0_0" index="0" speed="27.78" length="16.24" shape="2154.32,817.43 2140.41,825.82"/>
    </edge>
    <edge id=":1118311999_1" function="internal">
        <lane id=":1118311999_1_0" index="0" speed="10.22" length="4.29" shape="2154.32,817.43 2151.73,819.31 2151.06,820.17"/>
    </edge>
    <edge id=":1118311999_2" function="internal">
        <lane id=":1118311999_2_0" index="0" speed="3.65" length="1.44" shape="2154.32,817.43 2153.64,818.70"/>
    </edge>
    <edge id=":1118311999_9" function="internal">
        <lane id=":1118311999_9_0" index="0" speed="10.22" length="9.23" shape="2151.06,820.17 2149.79,821.81 2148.52,824.93 2147.91,828.66"/>
    </edge>
    <edge id=":1118311999_10" function="internal">
        <lane id=":1118311999_10_0" index="0" speed="3.65" length="3.23" shape="2153.64,818.70 2153.67,819.59 2154.40,820.11 2155.84,820.24"/>
    </edge>
    <edge id=":1118311999_3" function="internal">
        <lane id=":1118311999_3_0" index="0" speed="8.97" length="10.29" shape="2151.10,828.88 2151.56,825.97 2152.51,823.56 2153.93,821.65 2155.84,820.24"/>
    </edge>
    <edge id=":1118311999_4" function="internal">
        <lane id=":1118311999_4_0" index="0" speed="7.00" length="15.80" shape="2151.10,828.88 2150.71,824.80 2148.79,822.93 2145.36,823.27 2140.41,825.82"/>
    </edge>
    <edge id=":1118311999_5" function="internal">
        <lane id=":1118311999_5_0" index="0" speed="3.65" length="4.67" shape="2151.10,828.88 2150.39,827.63 2149.62,827.17 2148.79,827.52 2147.91,828.66"/>
    </edge>
    <edge id=":1118311999_6" function="internal">
        <lane id=":1118311999_6_0" index="0" speed="5.08" length="7.61" shape="2142.14,828.52 2144.77,827.07 2146.61,826.61 2147.65,827.14 2147.91,828.66"/>
    </edge>
    <edge id=":1118311999_7" function="internal">
        <lane id=":1118311999_7_0" index="0" speed="27.78" length="16.00" shape="2142.14,828.52 2155.84,820.24"/>
    </edge>
    <edge id=":1118311999_8" function="internal">
        <lane id=":1118311999_8_0" index="0" speed="3.65" length="1.44" shape="2142.14,828.52 2142.72,827.20"/>
    </edge>
    <edge id=":1118311999_11" function="internal">
        <lane id=":1118311999_11_0" index="0" speed="3.65" length="3.23" shape="2142.72,827.20 2142.62,826.31 2141.85,825.85 2140.41,825.82"/>
    </edge>
    <edge id=":1118312121_0" function="internal">
        <lane id=":1118312121_0_0" index="0" speed="6.52" length="8.68" shape="2084.22,965.64 2082.93,967.63 2081.31,968.76 2079.35,969.04 2077.06,968.48"/>
    </edge>
    <edge id=":1118312121_1" function="internal">
        <lane id=":1118312121_1_0" index="0" speed="3.65" length="1.44" shape="2084.22,965.64 2084.44,967.07"/>
    </edge>
    <edge id=":1118312121_4" function="internal">
        <lane id=":1118312121_4_0" index="0" speed="3.65" length="3.23" shape="2084.44,967.07 2085.00,967.77 2085.89,967.75 2087.12,966.99"/>
    </edge>
    <edge id=":1118312121_2" function="internal">
        <lane id=":1118312121_2_0" index="0" speed="6.57" length="8.72" shape="2089.49,974.39 2087.61,972.97 2086.59,971.26 2086.43,969.27 2087.12,966.99"/>
    </edge>
    <edge id=":1118312121_3" function="internal">
        <lane id=":1118312121_3_0" index="0" speed="13.89" length="13.77" shape="2089.49,974.39 2086.35,972.70 2083.37,971.22 2080.34,969.85 2077.06,968.48"/>
    </edge>
    <edge id=":1118312154_0" function="internal">
        <lane id=":1118312154_0_0" index="0" speed="13.89" length="10.91" shape="2144.25,835.96 2139.44,845.75"/>
    </edge>
    <edge id=":1118312154_1" function="internal">
        <lane id=":1118312154_1_0" index="0" speed="3.65" length="1.44" shape="2144.25,835.96 2144.44,837.39"/>
    </edge>
    <edge id=":1118312154_6" function="internal">
        <lane id=":1118312154_6_0" index="0" speed="3.65" length="3.23" shape="2144.44,837.39 2144.98,838.10 2145.87,838.10 2147.12,837.38"/>
    </edge>
    <edge id=":1118312154_2" function="internal">
        <lane id=":1118312154_2_0" index="0" speed="6.55" length="8.88" shape="2149.58,844.84 2147.61,843.38 2146.54,841.65 2146.38,839.65 2147.12,837.38"/>
    </edge>
    <edge id=":1118312154_3" function="internal">
        <lane id=":1118312154_3_0" index="0" speed="7.16" length="11.56" shape="2149.58,844.84 2146.07,843.33 2143.22,842.98 2141.01,843.79 2139.44,845.75"/>
    </edge>
    <edge id=":1118312154_4" function="internal">
        <lane id=":1118312154_4_0" index="0" speed="13.89" length="10.89" shape="2142.32,847.16 2147.12,837.38"/>
    </edge>
    <edge id=":1118312154_5" function="internal">
        <lane id=":1118312154_5_0" index="0" speed="3.65" length="1.44" shape="2142.32,847.16 2142.12,845.73"/>
    </edge>
    <edge id=":1118312154_7" function="internal">
        <lane id=":1118312154_7_0" index="0" speed="3.65" length="3.23" shape="2142.12,845.73 2141.58,845.02 2140.69,845.03 2139.44,845.75"/>
    </edge>
    <edge id=":1118312189_0" function="internal">
        <lane id=":1118312189_0_0" index="0" speed="13.89" length="11.41" shape="2226.87,974.37 2217.83,981.33"/>
    </edge>
    <edge id=":1118312189_1" function="internal">
        <lane id=":1118312189_1_0" index="0" speed="5.86" length="9.12" shape="2217.39,974.18 2219.45,975.85 2220.21,977.60 2219.67,979.43 2217.83,981.33"/>
    </edge>
    <edge id=":1118312194_0" function="internal">
        <lane id=":1118312194_0_0" index="0" speed="6.17" length="0.91" shape="2169.85,942.29 2169.68,943.18"/>
    </edge>
    <edge id=":1118312194_1" function="internal">
        <lane id=":1118312194_1_0" index="0" speed="3.65" length="0.83" shape="2169.85,942.29 2169.94,943.11"/>
    </edge>
    <edge id=":1118312194_4" function="internal">
        <lane id=":1118312194_4_0" index="0" speed="6.17" length="6.74" shape="2169.68,943.18 2169.60,943.61 2170.17,945.02 2171.59,946.50 2173.83,948.06"/>
    </edge>
    <edge id=":1118312194_5" function="internal">
        <lane id=":1118312194_5_0" index="0" speed="3.65" length="3.84" shape="2169.94,943.11 2170.00,943.72 2170.53,944.45 2171.42,944.46 2172.69,943.77"/>
    </edge>
    <edge id=":1118312194_2" function="internal">
        <lane id=":1118312194_2_0" index="0" speed="13.89" length="9.26" shape="2165.69,943.66 2168.16,944.87 2169.84,945.73 2171.47,946.65 2173.83,948.06"/>
    </edge>
    <edge id=":1118312194_3" function="internal">
        <lane id=":1118312194_3_0" index="0" speed="6.12" length="7.67" shape="2165.69,943.66 2168.24,944.69 2170.26,945.05 2171.74,944.74 2172.69,943.77"/>
    </edge>
    <edge id=":1118312198_0" function="internal">
        <lane id=":1118312198_0_0" index="0" speed="13.89" length="9.45" shape="2210.44,878.25 2202.21,873.60"/>
    </edge>
    <edge id=":1118312198_1" function="internal">
        <lane id=":1118312198_1_0" index="0" speed="6.03" length="7.89" shape="2210.44,878.25 2207.93,877.03 2205.92,876.58 2204.40,876.89 2203.39,877.99"/>
    </edge>
    <edge id=":1118312198_2" function="internal">
        <lane id=":1118312198_2_0" index="0" speed="6.15" length="1.01" shape="2206.22,879.47 2206.44,878.48"/>
    </edge>
    <edge id=":1118312198_3" function="internal">
        <lane id=":1118312198_3_0" index="0" speed="3.65" length="0.91" shape="2206.22,879.47 2206.13,878.56"/>
    </edge>
    <edge id=":1118312198_4" function="internal">
        <lane id=":1118312198_4_0" index="0" speed="6.15" length="6.84" shape="2206.44,878.48 2206.53,878.03 2205.97,876.57 2204.53,875.09 2202.21,873.60"/>
    </edge>
    <edge id=":1118312198_5" function="internal">
        <lane id=":1118312198_5_0" index="0" speed="3.65" length="3.76" shape="2206.13,878.56 2206.07,878.03 2205.54,877.31 2204.65,877.29 2203.39,877.99"/>
    </edge>
    <edge id=":1118317665_0" function="internal">
        <lane id=":1118317665_0_0" index="0" speed="27.78" length="0.37" width="2.50" shape="1883.64,496.61 1883.35,496.97"/>
        <lane id=":1118317665_0_1" index="1" speed="27.78" length="0.37" width="2.50" shape="1885.57,498.21 1885.31,498.52"/>
        <lane id=":1118317665_0_2" index="2" speed="27.78" length="0.37" width="2.50" shape="1887.49,499.81 1887.28,500.07"/>
        <lane id=":1118317665_0_3" index="3" speed="27.78" length="0.37" width="2.50" shape="1889.41,501.40 1889.24,501.62"/>
    </edge>
    <edge id=":1118319115_0" function="internal">
        <lane id=":1118319115_0_0" index="0" speed="27.78" length="0.30" width="2.50" shape="1828.25,564.96 1828.02,565.26"/>
        <lane id=":1118319115_0_1" index="1" speed="27.78" length="0.30" width="2.50" shape="1830.21,566.50 1830.01,566.77"/>
        <lane id=":1118319115_0_2" index="2" speed="27.78" length="0.30" width="2.50" shape="1832.18,568.04 1832.00,568.28"/>
        <lane id=":1118319115_0_3" index="3" speed="27.78" length="0.30" width="2.50" shape="1834.15,569.58 1833.99,569.79"/>
        <lane id=":1118319115_0_4" index="4" speed="27.78" length="0.30" width="2.50" shape="1836.12,571.13 1835.98,571.30"/>
    </edge>
    <edge id=":11610763348_0" function="internal">
        <lane id=":11610763348_0_0" index="0" speed="13.89" length="0.10" shape="2113.42,987.67 2113.42,987.67"/>
    </edge>
    <edge id=":11808562654_0" function="internal">
        <lane id=":11808562654_0_0" index="0" speed="22.22" length="0.29" width="2.50" shape="1866.52,925.11 1866.44,925.39"/>
        <lane id=":11808562654_0_1" index="1" speed="22.22" length="0.29" width="2.50" shape="1868.93,925.79 1868.85,926.08"/>
    </edge>
    <edge id=":11808562654_2" function="internal">
        <lane id=":11808562654_2_0" index="0" speed="22.22" length="0.31" width="2.50" shape="1873.65,927.46 1873.74,927.16"/>
        <lane id=":11808562654_2_1" index="1" speed="22.22" length="0.31" width="2.50" shape="1871.25,926.77 1871.33,926.48"/>
    </edge>
    <edge id=":11808562656_0" function="internal">
        <lane id=":11808562656_0_0" index="0" speed="22.22" length="0.10" shape="1857.34,930.47 1857.34,930.47"/>
    </edge>
    <edge id=":11808562656_1" function="internal">
        <lane id=":11808562656_1_0" index="0" speed="22.22" length="0.10" shape="1856.42,933.53 1856.42,933.53"/>
    </edge>
    <edge id=":12292987669_0" function="internal">
        <lane id=":12292987669_0_0" index="0" speed="27.78" length="8.00" shape="1900.99,1129.59 1898.19,1137.09"/>
    </edge>
    <edge id=":12292987669_1" function="internal">
        <lane id=":12292987669_1_0" index="0" speed="27.78" length="8.40" shape="1901.19,1138.21 1902.52,1136.08 1904.09,1135.02 1905.66,1133.96 1906.99,1131.83"/>
        <lane id=":12292987669_1_1" index="1" speed="27.78" length="8.40" shape="1901.19,1138.21 1903.99,1130.71"/>
    </edge>
    <edge id=":12293254625_0" function="internal">
        <lane id=":12293254625_0_0" index="0" speed="27.78" length="0.30" shape="1587.07,960.33 1586.97,960.62"/>
        <lane id=":12293254625_0_1" index="1" speed="27.78" length="0.30" shape="1590.10,961.36 1590.00,961.64"/>
        <lane id=":12293254625_0_2" index="2" speed="27.78" length="0.30" shape="1593.13,962.38 1593.04,962.66"/>
    </edge>
    <edge id=":12293254626_0" function="internal">
        <lane id=":12293254626_0_0" index="0" speed="27.78" length="0.29" shape="1609.30,968.27 1609.37,968.08"/>
        <lane id=":12293254626_0_1" index="1" speed="27.78" length="0.29" shape="1606.27,967.24 1606.37,966.96"/>
        <lane id=":12293254626_0_2" index="2" speed="27.78" length="0.29" shape="1603.24,966.20 1603.37,965.85"/>
    </edge>
    <edge id=":12293254633_0" function="internal">
        <lane id=":12293254633_0_0" index="0" speed="27.78" length="0.30" width="2.50" shape="1572.07,1005.71 1571.97,1006.00"/>
        <lane id=":12293254633_0_1" index="1" speed="27.78" length="0.30" width="2.50" shape="1574.42,1006.56 1574.32,1006.84"/>
        <lane id=":12293254633_0_2" index="2" speed="27.78" length="0.30" width="2.50" shape="1576.77,1007.41 1576.67,1007.68"/>
    </edge>
    <edge id=":12293254634_0" function="internal">
        <lane id=":12293254634_0_0" index="0" speed="27.78" length="0.10" width="2.50" shape="1592.89,1013.09 1592.89,1013.09"/>
        <lane id=":12293254634_0_1" index="1" speed="27.78" length="0.10" width="2.50" shape="1590.54,1012.25 1590.54,1012.25"/>
        <lane id=":12293254634_0_2" index="2" speed="27.78" length="0.10" width="2.50" shape="1588.19,1011.41 1588.19,1011.41"/>
    </edge>
    <edge id=":12293254640_0" function="internal">
        <lane id=":12293254640_0_0" index="0" speed="22.22" length="0.30" width="2.50" shape="1559.86,975.85 1559.57,975.77"/>
        <lane id=":12293254640_0_1" index="1" speed="22.22" length="0.30" width="2.50" shape="1559.21,978.26 1558.92,978.18"/>
    </edge>
    <edge id=":12293254640_2" function="internal">
        <lane id=":12293254640_2_0" index="0" speed="22.22" length="0.30" width="2.50" shape="1557.62,983.01 1557.91,983.09"/>
        <lane id=":12293254640_2_1" index="1" speed="22.22" length="0.30" width="2.50" shape="1558.27,980.60 1558.56,980.68"/>
    </edge>
    <edge id=":12383268391_0" function="internal">
        <lane id=":12383268391_0_0" index="0" speed="22.22" length="0.29" width="2.30" shape="1995.17,1094.63 1994.89,1094.57"/>
        <lane id=":12383268391_0_1" index="1" speed="22.22" length="0.29" width="2.30" shape="1994.65,1096.87 1994.37,1096.81"/>
    </edge>
    <edge id=":12383268391_2" function="internal">
        <lane id=":12383268391_2_0" index="0" speed="22.22" length="0.31" width="2.30" shape="1993.32,1101.28 1993.62,1101.36"/>
        <lane id=":12383268391_2_1" index="1" speed="22.22" length="0.31" width="2.30" shape="1993.84,1099.05 1994.14,1099.11"/>
    </edge>
    <edge id=":12542948454_0" function="internal">
        <lane id=":12542948454_0_0" index="0" speed="22.22" length="2.94" width="2.50" shape="2050.32,768.39 2052.57,766.50"/>
    </edge>
    <edge id=":12542948454_1" function="internal">
        <lane id=":12542948454_1_0" index="0" speed="22.22" length="2.97" width="2.50" shape="2054.21,768.39 2051.93,770.30"/>
    </edge>
    <edge id=":12542948459_0" function="internal">
        <lane id=":12542948459_0_0" index="0" disallow="pedestrian bicycle" speed="27.78" length="0.30" width="2.30" shape="2183.50,816.89 2183.24,816.75"/>
        <lane id=":12542948459_0_1" index="1" disallow="pedestrian bicycle" speed="27.78" length="0.30" width="2.30" shape="2182.44,818.93 2182.17,818.79"/>
    </edge>
    <edge id=":12542948459_2" function="internal">
        <lane id=":12542948459_2_0" index="0" disallow="pedestrian bicycle" speed="27.78" length="0.30" width="2.30" shape="2180.04,822.87 2180.30,823.01"/>
        <lane id=":12542948459_2_1" index="1" disallow="pedestrian bicycle" speed="27.78" length="0.30" width="2.30" shape="2181.10,820.83 2181.37,820.97"/>
    </edge>
    <edge id=":12561153123_0" function="internal">
        <lane id=":12561153123_0_0" index="0" speed="22.22" length="0.10" width="2.50" shape="1771.71,754.05 1771.71,754.05"/>
    </edge>
    <edge id=":12561153123_1" function="internal">
        <lane id=":12561153123_1_0" index="0" speed="22.22" length="0.10" width="2.50" shape="1771.03,756.45 1771.03,756.45"/>
    </edge>
    <edge id=":12561153124_0" function="internal">
        <lane id=":12561153124_0_0" index="0" speed="22.22" length="0.30" width="2.30" shape="1775.15,767.80 1775.06,768.09"/>
        <lane id=":12561153124_0_1" index="1" speed="22.22" length="0.30" width="2.30" shape="1777.36,768.45 1777.27,768.73"/>
    </edge>
    <edge id=":12561153124_2" function="internal">
        <lane id=":12561153124_2_0" index="0" speed="22.22" length="0.30" width="2.30" shape="1781.69,770.01 1781.78,769.73"/>
        <lane id=":12561153124_2_1" index="1" speed="22.22" length="0.30" width="2.30" shape="1779.48,769.37 1779.57,769.09"/>
    </edge>
    <edge id=":12561153126_0" function="internal">
        <lane id=":12561153126_0_0" index="0" speed="22.22" length="0.29" width="2.50" shape="1789.89,759.24 1790.17,759.32"/>
    </edge>
    <edge id=":12561153126_1" function="internal">