<?xml version="1.0" encoding="UTF-8"?>

<!-- generated on 2026-06-11 14:23:32.094755 by randomTrips.py v1_19_0+0000-baa66a0f364
<configuration>
    <net-file value="tenjin_fixed.net.xml"/>
    <output-trip-file value="routes.rou.xml"/>
    <min-distance value="100.0"/>
    <validate value="True"/>
    <end value="10800.0"/>
    <period value="21.6"/>
</configuration>
-->

<!-- generated on 2026-06-11 14:23:32 by Eclipse SUMO duarouter Version 1.19.0
<configuration xmlns:xsi="http://www.w3.org/2001/XMLSchema-instance" xsi:noNamespaceSchemaLocation="http://sumo.dlr.de/xsd/duarouterConfiguration.xsd">

    <input>
        <net-file value="tenjin_fixed.net.xml"/>
        <route-files value="routes.rou.xml"/>
    </input>

    <output>
        <output-file value="routes.rou.xml.tmp"/>
        <alternatives-output value="NUL"/>
        <write-trips value="true"/>
    </output>

    <time>
        <begin value="0.0"/>
        <end value="10800.0"/>
    </time>

    <report>
        <no-warnings value="true"/>
        <ignore-errors value="true"/>
        <no-step-log value="true"/>
    </report>

</configuration>
-->

<routes xmlns:xsi="http://www.w3.org/2001/XMLSchema-instance" xsi:noNamespaceSchemaLocation="http://sumo.dlr.de/xsd/routes_file.xsd">
    <trip id="0" depart="0.00" from="366459037#0" to="-175154937"/>
    <trip id="1" depart="21.60" from="-68756869#3" to="-520149464#2"/>
    <trip id="2" depart="43.20" from="520217615#0" to="46679219#5"/>
    <trip id="3" depart="64.80" from="827752739" to="-258878958#4"/>
    <trip id="4" depart="86.40" from="179128982" to="-175154939#1"/>
    <trip id="5" depart="108.00" from="-520149464#0" to="258878956#5"/>
    <trip id="6" depart="129.60" from="-175154939#0" to="-498810731#1"/>
    <trip id="7" depart="151.20" from="374632640#14" to="314741788#0"/>
    <trip id="8" depart="172.80" from="-520149464#1" to="32008537#5"/>
    <trip id="9" depart="194.40" from="68756871#1" to="-1385558999#1"/>
    <trip id="10" depart="216.00" from="68756870#2" to="46697765"/>
    <trip id="11" depart="237.60" from="-E19" to="-33111549#2"/>
    <trip id="12" depart="259.20" from="E11" to="-E18"/>
    <trip id="13" depart="280.80" from="-258878959#0" to="-258878959#3"/>
    <trip id="14" depart="302.40" from="728058748#0" to="33111547#0"/>
    <trip id="15" depart="324.00" from="68756871#0" to="520149464#1.32"/>
    <trip id="16" depart="345.60" from="28302398#2" to="E22"/>
    <trip id="17" depart="367.20" from="169516526#1" to="314744552#0"/>
    <trip id="18" depart="388.80" from="728022780#2" to="33111547#5.47"/>
    <trip id="19" depart="410.40" from="728404400" to="32008537#0"/>
    <trip id="20" depart="432.00" from="-520217615#0" to="-792115910"/>
    <trip id="21" depart="453.60" from="-258878958#0" to="-636282885#0"/>
    <trip id="22" depart="475.20" from="-28302398#1" to="-68756870#0"/>
    <trip id="23" depart="496.80" from="341760063#0" to="1418336510#1"/>
    <trip id="24" depart="518.40" from="1418336510#0" to="-520149462#1"/>
    <trip id="25" depart="540.00" from="-68756869#0" to="96532079#1"/>
    <trip id="26" depart="561.60" from="374632640#14" to="33111547#2"/>
    <trip id="27" depart="583.20" from="-46679219#0" to="520149464#1.32"/>
    <trip id="28" depart="604.80" from="-374632640#15" to="169516526#2"/>
    <trip id="29" depart="626.40" from="E29" to="341760063#1"/>
    <trip id="30" depart="648.00" from="315455102#0" to="46679220#1"/>
    <trip id="31" depart="669.60" from="728058747#0" to="68756862#0"/>
    <trip id="32" depart="691.20" from="-520217615#1" to="-175154939#2"/>
    <trip id="33" depart="712.80" from="-96532031#4" to="-68756869#0"/>
    <trip id="34" depart="734.40" from="-520149462#1" to="E0"/>
    <trip id="35" depart="756.00" from="730198315" to="-96532031#2"/>
    <trip id="36" depart="777.60" from="96531884#0" to="207916357#2"/>
    <trip id="37" depart="799.20" from="-68756864#2" to="-68756861#1"/>
    <trip id="38" depart="820.80" from="315455103#0" to="-68756864#1"/>
    <trip id="39" depart="842.40" from="32008537#4" to="96531837#0"/>
    <trip id="40" depart="864.00" from="175154939#0" to="-520149464#1"/>
    <trip id="41" depart="885.60" from="E6" to="258878956#7"/>
    <trip id="42" depart="907.20" from="-258878959#0" to="-204408419#1"/>
    <trip id="43" depart="928.80" from="-314741788#2" to="33111549#1"/>
    <trip id="44" depart="950.40" from="68756869#0" to="179084400#2"/>
    <trip id="45" depart="972.00" from="-217018820#0" to="174921836"/>
    <trip id="46" depart="993.60" from="E6" to="258878959#1"/>
    <trip id="47" depart="1015.20" from="E17" to="728404401"/>
    <trip id="48" depart="1036.80" from="-1385559001#1" to="520149463#0"/>
    <trip id="49" depart="1058.40" from="46679219#7" to="28302398#1"/>
    <trip id="50" depart="1080.00" from="-68756869#0" to="366459037#0"/>
    <trip id="51" depart="1101.60" from="-314741788#2" to="179129032#2"/>
    <trip id="52" depart="1123.20" from="207916357#0" to="E15"/>
    <trip id="53" depart="1144.80" from="730198315" to="-68756864#1"/>
    <trip id="54" depart="1166.40" from="258878956#4" to="-46679219#3"/>
    <trip id="55" depart="1188.00" from="96531837#2" to="736929016#1"/>
    <trip id="56" depart="1209.60" from="33111547#3" to="-33111549#0"/>
    <trip id="58" depart="1252.80" from="68756862#1" to="258878959#1"/>
    <trip id="59" depart="1274.40" from="-169516526#1" to="96532031#3"/>
    <trip id="60" depart="1296.00" from="736929016#1" to="728039350#0"/>
    <trip id="61" depart="1317.60" from="736929016#1" to="E12"/>
    <trip id="62" depart="1339.20" from="-258878958#2" to="217421750#2"/>
    <trip id="63" depart="1360.80" from="-217018834#0" to="68756858#0"/>
    <trip id="65" depart="1404.00" from="217018834#3" to="314741788#2"/>
    <trip id="66" depart="1425.60" from="-68756864#2" to="736929016#2"/>
    <trip id="67" depart="1447.20" from="179128982" to="-520149463#0"/>
    <trip id="68" depart="1468.80" from="302351410" to="520149464#1.32"/>
    <trip id="69" depart="1490.40" from="-498810734" to="-96532031#1"/>
    <trip id="70" depart="1512.00" from="E4" to="374632640#15"/>
    <trip id="71" depart="1533.60" from="204408419#0" to="258878958#1"/>
    <trip id="72" depart="1555.20" from="-315455103#1" to="-520149464#2"/>
    <trip id="73" depart="1576.80" from="-E19" to="32008537#5"/>
    <trip id="74" depart="1598.40" from="-520217615#1" to="-520149464#1"/>
    <trip id="75" depart="1620.00" from="-217018834#1" to="341760062#0"/>
    <trip id="76" depart="1641.60" from="-520217615#1" to="96531884#1"/>
    <trip id="77" depart="1663.20" from="728404399" to="-217018834#2"/>
    <trip id="78" depart="1684.80" from="-636282886#0" to="46679219#2"/>
    <trip id="79" depart="1706.40" from="-520149463#0" to="-33111547#1"/>
    <trip id="80" depart="1728.00" from="96532031#1" to="315455109#0"/>
    <trip id="81" depart="1749.60" from="217018834#2" to="68756864#1"/>
    <trip id="82" depart="1771.20" from="68756871#0" to="-46679220#1"/>
    <trip id="83" depart="1792.80" from="-258878959#2" to="179129032#0"/>
    <trip id="84" depart="1814.40" from="179128982" to="217018820#1"/>
    <trip id="85" depart="1836.00" from="520149464#1" to="46679219#4"/>
    <trip id="86" depart="1857.60" from="E27" to="-28302398#1"/>
    <trip id="87" depart="1879.20" from="175154939#1" to="-E19"/>
    <trip id="88" depart="1900.80" from="728404400" to="-68756861#2"/>
    <trip id="89" depart="1922.40" from="179084400#2" to="-68756870#1"/>
    <trip id="90" depart="1944.00" from="-68756861#3" to="96532031#0"/>
    <trip id="91" depart="1965.60" from="204408420#1" to="728404402"/>
    <trip id="92" depart="1987.20" from="314744552#1" to="-204408420#0"/>
    <trip id="93" depart="2008.80" from="E7" to="728039351"/>
    <trip id="94" depart="2030.40" from="E16" to="96532031#2"/>
    <trip id="95" depart="2052.00" from="728058748#1" to="-374632640#16"/>
    <trip id="96" depart="2073.60" from="258878956#0" to="-520149463#1"/>
    <trip id="97" depart="2095.20" from="175154939#1" to="-204408420#4"/>
    <trip id="98" depart="2116.80" from="169516526#1" to="E3"/>
    <trip id="99" depart="2138.40" from="-68756864#2" to="68756864#0"/>
    <trip id="101" depart="2181.60" from="E11" to="E8"/>
    <trip id="102" depart="2203.20" from="315455102#0" to="520149462#1"/>
    <trip id="103" depart="2224.80" from="-33111549#0" to="-96530719#0"/>
    <trip id="104" depart="2246.40" from="E16" to="32008537#1"/>
    <trip id="105" depart="2268.00" from="314741788#0" to="56131478#2"/>
    <trip id="106" depart="2289.60" from="-204408420#2" to="32008537#3"/>
    <trip id="107" depart="2311.20" from="258878956#5" to="728404398"/>
    <trip id="108" depart="2332.80" from="-33111549#1" to="E18"/>
    <trip id="109" depart="2354.40" from="-258878958#0" to="-46679219#7"/>
    <trip id="110" depart="2376.00" from="33111381" to="46679219#5"/>
    <trip id="111" depart="2397.60" from="-636282885#0" to="-315455109#0"/>
    <trip id="112" depart="2419.20" from="827752738" to="-68756861#1"/>
    <trip id="113" depart="2440.80" from="33111381" to="33111547#5.47"/>
    <trip id="114" depart="2462.40" from="179084400#1" to="32008537#3"/>
    <trip id="115" depart="2484.00" from="258878958#4" to="96532079#0"/>
    <trip id="116" depart="2505.60" from="-503961113#1" to="520149462#0"/>
    <trip id="117" depart="2527.20" from="-636282886#0" to="175154937"/>
    <trip id="118" depart="2548.80" from="46679219#3" to="-96531331#0"/>
    <trip id="119" depart="2570.40" from="-96532031#4" to="636282885#1"/>
    <trip id="120" depart="2592.00" from="-217018834#2" to="207916357#2"/>
    <trip id="121" depart="2613.60" from="E7" to="E8"/>
    <trip id="122" depart="2635.20" from="-217018834#2" to="-520149463#0"/>
    <trip id="123" depart="2656.80" from="-68756864#2" to="96532079#0"/>
    <trip id="125" depart="2700.00" from="1418336510#0" to="-33111549#2"/>
    <trip id="127" depart="2743.20" from="33111547#4" to="E30"/>
    <trip id="128" depart="2764.80" from="374632640#16" to="-1385559001#0"/>
    <trip id="129" depart="2786.40" from="721538379#1" to="-96531331#0"/>
    <trip id="130" depart="2808.00" from="46678989#5" to="96532136"/>
    <trip id="131" depart="2829.60" from="-33111547#0" to="-315455103#0"/>
    <trip id="132" depart="2851.20" from="-314741788#0" to="314744552#1"/>
    <trip id="133" depart="2872.80" from="520149462#0" to="-503961113#1"/>
    <trip id="134" depart="2894.40" from="341760063#0" to="-68756864#1"/>
    <trip id="135" depart="2916.00" from="258878956#1" to="96531884#1"/>
    <trip id="136" depart="2937.60" from="728058747#1" to="-258878959#1"/>
    <trip id="137" depart="2959.20" from="179128982" to="-68756870#0"/>
    <trip id="138" depart="2980.80" from="-1385558999#0" to="68756861#2"/>
    <trip id="139" depart="3002.40" from="341760063#1" to="-68756864#0"/>
    <trip id="140" depart="3024.00" from="520217615#2" to="314744552#0"/>
    <trip id="141" depart="3045.60" from="179129001#1" to="-1385559001#1"/>
    <trip id="142" depart="3067.20" from="-217018834#3" to="96530719#0"/>
    <trip id="143" depart="3088.80" from="96531331#2" to="314741788#1"/>
    <trip id="145" depart="3132.00" from="-33111547#5.70" to="-33111382#0"/>
    <trip id="146" depart="3153.60" from="-96532031#1" to="96531837#1"/>
    <trip id="147" depart="3175.20" from="68756869#2" to="728404401"/>
    <trip id="148" depart="3196.80" from="96531331#0" to="-520149462#1"/>
    <trip id="149" depart="3218.40" from="68756862#1" to="96530719#1"/>
    <trip id="150" depart="3240.00" from="178778538" to="33111548#0"/>
    <trip id="151" depart="3261.60" from="-33111549#0" to="96532031#3"/>
    <trip id="152" depart="3283.20" from="728404401" to="E26"/>
    <trip id="153" depart="3304.80" from="-175154937" to="520217615#1"/>
    <trip id="154" depart="3326.40" from="-E16" to="96532031#4"/>
    <trip id="156" depart="3369.60" from="68756871#1" to="-68756864#2"/>
    <trip id="157" depart="3391.20" from="68756864#1" to="-314741788#2"/>
    <trip id="158" depart="3412.80" from="730198314" to="728404401"/>
    <trip id="159" depart="3434.40" from="-520149464#1.49" to="721538379#1"/>
    <trip id="160" depart="3456.00" from="207916357#3" to="-96531331#2"/>
    <trip id="161" depart="3477.60" from="68756869#2" to="-520217615#1"/>
    <trip id="162" depart="3499.20" from="-175154937" to="-46697765"/>
    <trip id="164" depart="3542.40" from="E15" to="-68756870#1"/>
    <trip id="165" depart="3564.00" from="366459037#1" to="175154939#1"/>
    <trip id="166" depart="3585.60" from="E21" to="28302398#1"/>
    <trip id="167" depart="3607.20" from="96532031#2" to="-315455103#0"/>
    <trip id="168" depart="3628.80" from="E17" to="-46679219#3"/>
    <trip id="169" depart="3650.40" from="E13" to="-68756864#2"/>
    <trip id="170" depart="3672.00" from="-314741788#1" to="179129032#2"/>
    <trip id="171" depart="3693.60" from="520149464#1" to="-96532031#2"/>
    <trip id="172" depart="3715.20" from="174921838#0" to="32008537#0"/>
    <trip id="173" depart="3736.80" from="-68756862#1" to="498810734"/>
    <trip id="174" depart="3758.40" from="-1328724321" to="96532031#1"/>
    <trip id="175" depart="3780.00" from="28302398#2" to="520149463#0"/>
    <trip id="177" depart="3823.20" from="1385559001#0" to="-217018834#2"/>
    <trip id="178" depart="3844.80" from="46678989#5" to="-E15"/>
    <trip id="179" depart="3866.40" from="-96532031#3" to="728070056#0"/>
    <trip id="180" depart="3888.00" from="520149462#1" to="-96531331#0"/>
    <trip id="181" depart="3909.60" from="175154939#1" to="-96530719#0"/>
    <trip id="182" depart="3931.20" from="-33111381" to="179084400#2"/>
    <trip id="183" depart="3952.80" from="96531331#2" to="33111547#5"/>
    <trip id="184" depart="3974.40" from="-96531331#2" to="314741788#2"/>
    <trip id="185" depart="3996.00" from="-1328724321" to="-68756871#1"/>
    <trip id="186" depart="4017.60" from="179129032#0" to="32008537#1"/>
    <trip id="187" depart="4039.20" from="374632640#16" to="217018820#0"/>
    <trip id="188" depart="4060.80" from="204408420#0" to="-520149463#1"/>
    <trip id="189" depart="4082.40" from="217018834#2" to="96531837#2"/>
    <trip id="190" depart="4104.00" from="68756869#2" to="-46679219#0"/>
    <trip id="191" depart="4125.60" from="-258878958#2" to="258878958#0"/>
    <trip id="192" depart="4147.20" from="341760062#1" to="-E17"/>
    <trip id="193" depart="4168.80" from="728022779#0" to="636282885#0"/>
    <trip id="194" depart="4190.40" from="46679219#3" to="-520149464#2"/>
    <trip id="195" depart="4212.00" from="-498810731#1" to="-175154937"/>
    <trip id="196" depart="4233.60" from="-68756861#1" to="217018834#2"/>
    <trip id="197" depart="4255.20" from="728058748#1" to="-217018834#3"/>
    <trip id="198" depart="4276.80" from="179084399#0" to="33111549#2"/>
    <trip id="199" depart="4298.40" from="258878956#2" to="-68756861#0"/>
    <trip id="200" depart="4320.00" from="42762533#0" to="-1385558999#1"/>
    <trip id="201" depart="4341.60" from="636282885#0" to="68756861#1"/>
    <trip id="202" depart="4363.20" from="-314741788#0" to="179128982"/>
    <trip id="203" depart="4384.80" from="-46679219#2" to="E16"/>
    <trip id="204" depart="4406.40" from="258878958#2" to="-204408420#0"/>
    <trip id="205" depart="4428.00" from="-68756861#2" to="728070056#0"/>
    <trip id="206" depart="4449.60" from="207916357#1" to="68756870#1"/>
    <trip id="207" depart="4471.20" from="46679219#1" to="E30"/>
    <trip id="208" depart="4492.80" from="33111381" to="E13"/>
    <trip id="209" depart="4514.40" from="827752739" to="33111547#4"/>
    <trip id="211" depart="4557.60" from="96530719#1" to="56131478#0"/>
    <trip id="212" depart="4579.20" from="217018834#3" to="-68756862#2"/>
    <trip id="213" depart="4600.80" from="-68756861#2" to="341760063#0"/>
    <trip id="215" depart="4644.00" from="33111549#1" to="-68756869#3"/>
    <trip id="216" depart="4665.60" from="-217018834#4" to="-68756871#1"/>
    <trip id="217" depart="4687.20" from="-68756869#2" to="-96532031#4"/>
    <trip id="218" depart="4708.80" from="302351410" to="-33111547#3"/>
    <trip id="219" depart="4730.40" from="-520217615#2" to="46696367#2"/>
    <trip id="220" depart="4752.00" from="498810731#1" to="-217018820#1"/>
    <trip id="221" depart="4773.60" from="178778538" to="302351410"/>
    <trip id="222" depart="4795.20" from="179084400#0" to="-520149462#0"/>
    <trip id="223" depart="4816.80" from="179084400#2" to="96531884#0"/>
    <trip id="224" depart="4838.40" from="32008537#4" to="46696367#2"/>
    <trip id="225" depart="4860.00" from="728404398" to="68756858#2"/>
    <trip id="226" depart="4881.60" from="169516526#2" to="-1385558999#1"/>
    <trip id="227" depart="4903.20" from="-E7" to="636282885#1"/>
    <trip id="228" depart="4924.80" from="728070056#1" to="E14"/>
    <trip id="229" depart="4946.40" from="179084400#1" to="56131478#2"/>
    <trip id="230" depart="4968.00" from="314741788#2" to="33111547#0"/>
    <trip id="231" depart="4989.60" from="179129032#2" to="-175154939#1"/>
    <trip id="232" depart="5011.20" from="-E18" to="46679219#6"/>
    <trip id="233" depart="5032.80" from="175154939#2" to="-374632640#16"/>
    <trip id="234" depart="5054.40" from="217018834#0" to="-33111382#1"/>
    <trip id="235" depart="5076.00" from="33111548#1" to="-175154939#0"/>
    <trip id="236" depart="5097.60" from="175081037#1" to="315455103#1"/>
    <trip id="237" depart="5119.20" from="-175154939#0" to="366459037#1"/>
    <trip id="238" depart="5140.80" from="-33111547#1" to="207916357#3"/>
    <trip id="239" depart="5162.40" from="-204408419#1" to="169516526#2"/>
    <trip id="240" depart="5184.00" from="-520149462#1" to="-E13"/>
    <trip id="241" depart="5205.60" from="66333895#10" to="169516526#2"/>
    <trip id="242" depart="5227.20" from="636282885#0" to="728039350#0"/>
    <trip id="243" depart="5248.80" from="-68756862#0" to="-258878958#2"/>
    <trip id="244" depart="5270.40" from="-169516526#1" to="28302398#2"/>
    <trip id="245" depart="5292.00" from="374632640#14" to="68756862#2"/>
    <trip id="246" depart="5313.60" from="374632640#15" to="636282886#0"/>
    <trip id="247" depart="5335.20" from="96532136" to="-498810731#1"/>
    <trip id="248" depart="5356.80" from="-169516526#1" to="-33111549#0"/>
    <trip id="249" depart="5378.40" from="-33111381" to="46679219#2"/>
    <trip id="250" depart="5400.00" from="315455103#1" to="-520149464#0"/>
    <trip id="251" depart="5421.60" from="46872314#0" to="68756861#0"/>
    <trip id="252" depart="5443.20" from="-374632640#16" to="33111547#1"/>
    <trip id="253" depart="5464.80" from="56131478#1" to="-315455103#0"/>
    <trip id="254" depart="5486.40" from="728022779#0" to="E19"/>
    <trip id="255" depart="5508.00" from="-314741788#1" to="-175154939#0"/>
    <trip id="256" depart="5529.60" from="E12" to="175154937"/>
    <trip id="257" depart="5551.20" from="503961113#2" to="-217018834#4"/>
    <trip id="258" depart="5572.80" from="46696367#0" to="33111549#1"/>
    <trip id="259" depart="5594.40" from="-28302398#1" to="68756861#2"/>
    <trip id="260" depart="5616.00" from="728058748#1" to="33111382#0"/>
    <trip id="261" depart="5637.60" from="-315455103#1" to="E3"/>
    <trip id="263" depart="5680.80" from="258878956#7" to="-E21"/>
    <trip id="264" depart="5702.40" from="-314741788#0" to="E18"/>
    <trip id="265" depart="5724.00" from="341760063#0" to="728039349"/>
    <trip id="266" depart="5745.60" from="498810731#1" to="179129032#2"/>
    <trip id="267" depart="5767.20" from="520149464#2" to="E2"/>
    <trip id="268" depart="5788.80" from="-68756869#1" to="68756871#1"/>
    <trip id="269" depart="5810.40" from="28302398#2" to="217421750#1"/>
    <trip id="270" depart="5832.00" from="179129032#2" to="520149464#2"/>
    <trip id="271" depart="5853.60" from="-68756869#1" to="728404398"/>
    <trip id="273" depart="5896.80" from="792115910" to="-68756861#0"/>
    <trip id="274" depart="5918.40" from="217018820#1" to="33111547#3"/>
    <trip id="275" depart="5940.00" from="169516526#1" to="-175154939#1"/>
    <trip id="276" depart="5961.60" from="728070056#0" to="-46679219#5"/>
    <trip id="277" depart="5983.20" from="-520149462#1" to="68756869#3"/>
    <trip id="278" depart="6004.80" from="-E21" to="827752738"/>
    <trip id="279" depart="6026.40" from="46872314#0" to="-68756870#0"/>
    <trip id="280" depart="6048.00" from="-1385559001#1" to="E12"/>
    <trip id="281" depart="6069.60" from="-258878958#2" to="520149463#0"/>
    <trip id="282" depart="6091.20" from="258878956#1" to="636282886#1"/>
    <trip id="283" depart="6112.80" from="46696367#0" to="366459037#2"/>
    <trip id="284" depart="6134.40" from="-258878959#0" to="-520149464#1.49"/>
    <trip id="285" depart="6156.00" from="46696367#0" to="-96531331#2"/>
    <trip id="286" depart="6177.60" from="32008537#3" to="217018834#1"/>
    <trip id="287" depart="6199.20" from="258878959#2" to="179128982"/>
    <trip id="288" depart="6220.80" from="56131478#1" to="-E15"/>
    <trip id="289" depart="6242.40" from="46872314#1" to="-68756869#1"/>
    <trip id="290" depart="6264.00" from="-68756861#3" to="-315455109#1"/>
    <trip id="291" depart="6285.60" from="-46679220#1" to="-315455109#0"/>
    <trip id="292" depart="6307.20" from="28302398#1" to="68756858#1"/>
    <trip id="293" depart="6328.80" from="-46679219#6" to="-520149464#0"/>
    <trip id="294" depart="6350.40" from="217421750#2" to="520149464#0"/>
    <trip id="295" depart="6372.00" from="E19" to="258878958#4"/>
    <trip id="296" depart="6393.60" from="-68756871#0" to="-28302398#2"/>
    <trip id="297" depart="6415.20" from="-46697765" to="-520217615#1"/>
    <trip id="298" depart="6436.80" from="-46679219#3" to="-1418336510#1"/>
    <trip id="299" depart="6458.40" from="28302398#1" to="-68756869#3"/>
    <trip id="300" depart="6480.00" from="E18" to="314744552#1"/>
    <trip id="301" depart="6501.60" from="728427983#1" to="258878956#1"/>
    <trip id="302" depart="6523.20" from="730198314" to="315455109#1"/>
    <trip id="303" depart="6544.80" from="-46679219#6" to="-204408420#1"/>
    <trip id="304" depart="6566.40" from="96532031#3" to="217018834#3"/>
    <trip id="305" depart="6588.00" from="728022779#1" to="175154939#1"/>
    <trip id="306" depart="6609.60" from="-217018834#2" to="33111549#2"/>
    <trip id="307" depart="6631.20" from="-204408420#0" to="-33111548#1"/>
    <trip id="308" depart="6652.80" from="315455103#1" to="-96531331#1"/>
    <trip id="309" depart="6674.40" from="E4" to="-315455109#0"/>
    <trip id="311" depart="6717.60" from="68756869#0" to="-520217615#0"/>
    <trip id="312" depart="6739.20" from="258878958#4" to="204408420#4"/>
    <trip id="313" depart="6760.80" from="204408420#0" to="728404401"/>
    <trip id="314" depart="6782.40" from="E29" to="-96531331#2"/>
    <trip id="315" depart="6804.00" from="33111548#1" to="33111547#2"/>
    <trip id="316" depart="6825.60" from="520217615#2" to="E12"/>
    <trip id="317" depart="6847.20" from="42762533#2" to="-33111549#2"/>
    <trip id="318" depart="6868.80" from="-46679219#1" to="-217018834#4"/>
    <trip id="319" depart="6890.40" from="-1385558999#0" to="204408420#4"/>
    <trip id="320" depart="6912.00" from="-520217615#2" to="498810731#1"/>
    <trip id="321" depart="6933.60" from="46872314#1" to="207916357#0"/>
    <trip id="322" depart="6955.20" from="68756864#1" to="33111549#0"/>
    <trip id="323" depart="6976.80" from="42762533#2" to="96532079#0"/>
    <trip id="324" depart="6998.40" from="179128993" to="314741788#0"/>
    <trip id="325" depart="7020.00" from="374632640#13" to="96531884#2"/>
    <trip id="326" depart="7041.60" from="728022780#1" to="-217018834#2"/>
    <trip id="327" depart="7063.20" from="-374632640#16" to="-96531409#0"/>
    <trip id="328" depart="7084.80" from="56131478#2" to="315455106#1"/>
    <trip id="331" depart="7149.60" from="96532031#4" to="258878956#3"/>
    <trip id="332" depart="7171.20" from="-179084414#0" to="179129032#1"/>
    <trip id="333" depart="7192.80" from="-258878959#0" to="E18"/>
    <trip id="335" depart="7236.00" from="96532136" to="E9"/>
    <trip id="336" depart="7257.60" from="46679219#3" to="-68756869#1"/>
    <trip id="337" depart="7279.20" from="-179084414#0" to="636282886#0"/>
    <trip id="338" depart="7300.80" from="217018834#1" to="374632640#15"/>
    <trip id="339" depart="7322.40" from="96531884#0" to="-46679219#5"/>
    <trip id="340" depart="7344.00" from="32008537#5" to="341760062#1"/>
    <trip id="341" depart="7365.60" from="258878956#10" to="-258878959#1"/>
    <trip id="342" depart="7387.20" from="-E5" to="-E16"/>
    <trip id="343" depart="7408.80" from="46679219#2" to="728404400"/>
    <trip id="344" depart="7430.40" from="-E15" to="46696367#1"/>
    <trip id="345" depart="7452.00" from="721538379#0" to="314744552#0"/>
    <trip id="346" depart="7473.60" from="207916357#1" to="-96532031#2"/>
    <trip id="347" depart="7495.20" from="-E0" to="E21"/>
    <trip id="348" depart="7516.80" from="175154939#2" to="258878956#9"/>
    <trip id="349" depart="7538.40" from="E28" to="42762533#1"/>
    <trip id="350" depart="7560.00" from="314741788#0" to="179084399#0"/>
    <trip id="351" depart="7581.60" from="636282886#0" to="33111549#0"/>
    <trip id="352" depart="7603.20" from="66333895#10" to="-503961113#1"/>
    <trip id="353" depart="7624.80" from="314744552#0" to="96532031#2"/>
    <trip id="354" depart="7646.40" from="204408419#0" to="46697765"/>
    <trip id="355" depart="7668.00" from="-315455109#0" to="E22"/>
    <trip id="356" depart="7689.60" from="33111547#3" to="-636282886#1"/>
    <trip id="357" depart="7711.20" from="-33111549#1" to="314744552#0"/>
    <trip id="358" depart="7732.80" from="314744552#1" to="-258878959#2"/>
    <trip id="359" depart="7754.40" from="E30" to="96531884#4"/>
    <trip id="361" depart="7797.60" from="520149462#0" to="258878956#7"/>
    <trip id="362" depart="7819.20" from="-68756869#3" to="728039350#1"/>
    <trip id="363" depart="7840.80" from="E21" to="-68756861#0"/>
    <trip id="365" depart="7884.00" from="96531884#3" to="258878956#7"/>
    <trip id="367" depart="7927.20" from="-68756870#0" to="68756869#0"/>
    <trip id="368" depart="7948.80" from="179084400#0" to="96532079#0"/>
    <trip id="369" depart="7970.40" from="258878956#7" to="728022779#1"/>
    <trip id="370" depart="7992.00" from="32008537#5" to="E9"/>
    <trip id="371" depart="8013.60" from="258878956#10" to="-33111548#1"/>
    <trip id="372" depart="8035.20" from="302351410" to="-E22"/>
    <trip id="373" depart="8056.80" from="314744552#1" to="314741788#0"/>
    <trip id="374" depart="8078.40" from="207916357#1" to="-96532136"/>
    <trip id="375" depart="8100.00" from="-46679219#7" to="46697765"/>
    <trip id="376" depart="8121.60" from="315455109#1" to="-636282885#0"/>
    <trip id="377" depart="8143.20" from="68756861#3" to="-179128993"/>
    <trip id="379" depart="8186.40" from="46678989#5" to="728022779#1"/>
    <trip id="380" depart="8208.00" from="E21" to="258878956#11"/>
    <trip id="381" depart="8229.60" from="-178778539#0" to="258878956#4"/>
    <trip id="382" depart="8251.20" from="32008537#7" to="730198315"/>
    <trip id="383" depart="8272.80" from="730198315" to="204408419#1"/>
    <trip id="384" depart="8294.40" from="258878959#0" to="207916357#1"/>
    <trip id="385" depart="8316.00" from="520149463#0" to="178778539#1"/>
    <trip id="386" depart="8337.60" from="374632640#16" to="-33111549#1"/>
    <trip id="387" depart="8359.20" from="217018834#1" to="E20"/>
    <trip id="388" depart="8380.80" from="-E19" to="46696367#1"/>
    <trip id="389" depart="8402.40" from="374632640#14" to="728404398"/>
    <trip id="390" depart="8424.00" from="169516526#2" to="-96532031#3"/>
    <trip id="391" depart="8445.60" from="520149462#1" to="68756858#0"/>
    <trip id="392" depart="8467.20" from="730198314" to="-178778539#0"/>
    <trip id="393" depart="8488.80" from="-217018834#0" to="341760062#0"/>
    <trip id="394" depart="8510.40" from="96531884#3" to="E8"/>
    <trip id="395" depart="8532.00" from="56131478#1" to="179129032#2"/>
    <trip id="396" depart="8553.60" from="-258878959#3" to="341760062#1"/>
    <trip id="397" depart="8575.20" from="730198314" to="204408420#1"/>
    <trip id="398" depart="8596.80" from="46696367#1" to="96531884#0"/>
    <trip id="399" depart="8618.40" from="-179128993" to="68756869#3"/>
    <trip id="400" depart="8640.00" from="-96530719#0" to="169516526#0"/>
    <trip id="401" depart="8661.60" from="-33111547#5" to="258878959#1"/>
    <trip id="402" depart="8683.20" from="315455106#0" to="68756869#1"/>
    <trip id="403" depart="8704.80" from="-46678989#5" to="-258878958#1"/>
    <trip id="404" depart="8726.40" from="728453644" to="33111548#0"/>
    <trip id="405" depart="8748.00" from="-636282886#1" to="96531884#4"/>
    <trip id="406" depart="8769.60" from="-33111547#4" to="207916357#3"/>
    <trip id="407" depart="8791.20" from="-1385559001#1" to="68756870#2"/>
    <trip id="408" depart="8812.80" from="96531331#1" to="46679219#6"/>
    <trip id="409" depart="8834.40" from="-33111549#1" to="204408420#0"/>
    <trip id="410" depart="8856.00" from="-E4" to="32008537#5"/>
    <trip id="412" depart="8899.20" from="-68756861#3" to="728058748#1"/>
    <trip id="414" depart="8942.40" from="217421750#2" to="-636282886#0"/>
    <trip id="415" depart="8964.00" from="E30" to="-96530719#0"/>
    <trip id="416" depart="8985.60" from="E20" to="42762533#1"/>
    <trip id="417" depart="9007.20" from="-68756869#3" to="315455103#1"/>
    <trip id="418" depart="9028.80" from="46679220#1" to="56131478#0"/>
    <trip id="419" depart="9050.40" from="-204408419#1" to="33111547#1"/>
    <trip id="420" depart="9072.00" from="258878956#3" to="96531884#0"/>
    <trip id="421" depart="9093.60" from="-68756871#1" to="68756870#0"/>
    <trip id="422" depart="9115.20" from="33111547#2" to="1328724321"/>