<?xml version="1.0" encoding="UTF-8"?>
<!--
  routes_pattern2_vehicle.rou.xml
  tenjin_base.net.xml 対応版
-->

<routes>

    <vType id="car" accel="2.6" decel="4.5" sigma="0.5" length="4.5" minGap="2.5" maxSpeed="13.89"/>

    <!-- ========== ルート定義（数字順） ========== -->
    <route id="route_e1_e2" edges="374632640#13 374632640#14 68756858#0 68756858#1 68756858#2 E23"/>
    <route id="route_e1_e3" edges="374632640#13 374632640#14 374632640#15 374632640#16 42762533#0 42762533#1 179084399#0 169489044#0 E26"/>
    <route id="route_e1_e4" edges="374632640#13 374632640#14 374632640#15 374632640#16 42762533#0 42762533#1 302351410 730198314 46696367#0 314744552#0 314744552#1 314744552#2 46872314#1 96531409#0 E13 E15 -E18 E21 E22"/>
    <route id="route_e1_e5" edges="374632640#13 374632640#14 374632640#15 374632640#16 42762533#0 42762533#1 302351410 730198314 46696367#0 46696367#1 46696367#2 730198315 341760063#0 341760063#1 728404399 728404400 728404401 728058748#0 728058748#1 520217616 728039351 46696365 728039349 728039350#0 728039350#1 179084398#0"/>
    <route id="route_e1_e6" edges="374632640#13 374632640#14 374632640#15 374632640#16 258878959#0 258878959#1 258878959#2 258878959#3 636282886#0 636282886#1 -46697765 -96533041 -33111382#1 -33111382#0 -178778538 -33111381 -28302398#2 -28302398#1"/>
    <route id="route_e1_e7" edges="374632640#13 374632640#14 374632640#15 374632640#16 258878959#0 258878959#1 258878959#2 258878959#3 636282886#0 636282886#1 -46697765 -96533041 -33111382#1 -33111382#0 46679219#0 46679219#1 46679219#2 46679219#3 46679219#4 46679219#5 46679219#6 204408420#2 204408420#3 204408420#4"/>
    <route id="route_e1_e8" edges="374632640#13 374632640#14 374632640#15 374632640#16 258878956#0 258878956#1 258878956#2 258878956#3 258878956#4 258878956#5 258878956#7 258878956#10 207916357#1 207916357#2 207916357#3 721538379#0 721538379#1 721538378#0 E3 E25"/>
    <route id="route_e1_p1" edges="374632640#13 374632640#14 374632640#15 374632640#16 258878959#0 258878959#1 258878959#2 68756864#0 68756864#1 68756864#2 E2"/>
    <route id="route_e1_p11" edges="374632640#13 374632640#14 374632640#15 374632640#16 258878959#0 258878959#1 258878959#2 258878959#3 -68756861#2 E33"/>
    <route id="route_e1_p3" edges="374632640#13 374632640#14 374632640#15 374632640#16 258878956#0 258878956#1 258878956#2 258878956#3 258878956#4 258878956#5 68756870#1 68756870#2 E31"/>
    <route id="route_e1_p5" edges="374632640#13 374632640#14 374632640#15 374632640#16 258878956#0 258878956#1 258878956#2 258878956#3 258878956#4 258878956#5 258878956#7 258878956#10 32008537#1 32008537#2 E10"/>
    <route id="route_e1_p7" edges="374632640#13 374632640#14 374632640#15 374632640#16 258878956#0 258878956#1 258878956#2 258878956#3 258878956#4 258878956#5 258878956#7 33111547#2 33111547#3 33111547#4 33111547#5 33111547#5.47 520149464#0 520149464#1 E32"/>
    <route id="route_e1_p9" edges="374632640#13 374632640#14 374632640#15 374632640#16 258878956#0 258878956#1 258878956#2 258878956#3 258878956#4 258878956#5 258878956#7 33111547#2 33111547#3 33111547#4 33111547#5 33111547#5.47 -217018834#4 -217018834#3 j22"/>
    <route id="route_e2_e1" edges="728058747#0 728058747#1 728058746 179084400#1 179084400#2 -374632640#16 -374632640#15 -374632640#14 -374632640#13"/>
    <route id="route_e2_e3" edges="728058747#0 728058747#1 728058746 179084399#0 169489044#0 E26"/>
    <route id="route_e2_e4" edges="728058747#0 728058747#1 728058746 302351410 730198314 46696367#0 314744552#0 314744552#1 314744552#2 46872314#1 96531409#0 E13 E15 -E18 E21 E22"/>
    <route id="route_e2_e5" edges="728058747#0 728058747#1 728058746 302351410 730198314 46696367#0 46696367#1 46696367#2 730198315 341760063#0 341760063#1 728404399 728404400 728404401 728058748#0 728058748#1 520217616 728039351 46696365 728039349 728039350#0 728039350#1 179084398#0"/>
    <route id="route_e2_e6" edges="728058747#0 728058747#1 728058746 179084400#1 179084400#2 258878959#0 258878959#1 258878959#2 258878959#3 636282886#0 636282886#1 -46697765 -96533041 -33111382#1 -33111382#0 -178778538 -33111381 -28302398#2 -28302398#1"/>
    <route id="route_e2_e7" edges="728058747#0 728058747#1 728058746 179084400#1 179084400#2 258878959#0 258878959#1 258878959#2 258878959#3 636282886#0 636282886#1 -46697765 -96533041 -33111382#1 -33111382#0 46679219#0 46679219#1 46679219#2 46679219#3 46679219#4 46679219#5 46679219#6 204408420#2 204408420#3 204408420#4"/>
    <route id="route_e2_e8" edges="728058747#0 728058747#1 728058746 179084400#1 179084400#2 258878956#0 258878956#1 258878956#2 258878956#3 258878956#4 258878956#5 258878956#7 258878956#10 207916357#1 207916357#2 207916357#3 721538379#0 721538379#1 721538378#0 E3 E25"/>
    <route id="route_e2_p1" edges="728058747#0 728058747#1 728058746 179084400#1 179084400#2 258878959#0 258878959#1 258878959#2 68756864#0 68756864#1 68756864#2 E2"/>
    <route id="route_e2_p11" edges="728058747#0 728058747#1 728058746 179084400#1 179084400#2 258878959#0 258878959#1 258878959#2 258878959#3 -68756861#2 E33"/>
    <route id="route_e2_p3" edges="728058747#0 728058747#1 728058746 179084400#1 179084400#2 258878956#0 258878956#1 258878956#2 258878956#3 258878956#4 258878956#5 68756870#1 68756870#2 E31"/>
    <route id="route_e2_p5" edges="728058747#0 728058747#1 728058746 179084400#1 179084400#2 258878956#0 258878956#1 258878956#2 258878956#3 258878956#4 258878956#5 258878956#7 258878956#10 32008537#1 32008537#2 E10"/>
    <route id="route_e2_p7" edges="728058747#0 728058747#1 728058746 179084400#1 179084400#2 258878956#0 258878956#1 258878956#2 258878956#3 258878956#4 258878956#5 258878956#7 33111547#2 33111547#3 33111547#4 33111547#5 33111547#5.47 520149464#0 520149464#1 E32"/>
    <route id="route_e2_p9" edges="728058747#0 728058747#1 728058746 179084400#1 179084400#2 258878956#0 258878956#1 258878956#2 258878956#3 258878956#4 258878956#5 258878956#7 33111547#2 33111547#3 33111547#4 33111547#5 33111547#5.47 -217018834#4 -217018834#3 j22"/>
    <route id="route_e3_e1" edges="E20 E12 175081037#1 179084400#1 179084400#2 -374632640#16 -374632640#15 -374632640#14 -374632640#13"/>
    <route id="route_e3_e2" edges="E20 E12 175081037#1 210342328#0 E23"/>
    <route id="route_e3_e4" edges="E20 E12 46872314#0 46872314#1 96531409#0 E13 E15 -E18 E21 E22"/>
    <route id="route_e3_e5" edges="E20 E12 46872314#0 46872314#1 96531409#0 -96531331#2 -96531331#1 -96531331#0 728404399 728404400 728404401 728058748#0 728058748#1 520217616 728039351 46696365 728039349 728039350#0 728039350#1 179084398#0"/>
    <route id="route_e3_e6" edges="E20 E12 175081037#1 179084400#1 179084400#2 258878959#0 258878959#1 258878959#2 258878959#3 636282886#0 636282886#1 -46697765 -96533041 -33111382#1 -33111382#0 -178778538 -33111381 -28302398#2 -28302398#1"/>
    <route id="route_e3_e7" edges="E20 E12 175081037#1 179084400#1 179084400#2 258878959#0 258878959#1 258878959#2 258878959#3 636282886#0 636282886#1 -46697765 -96533041 -33111382#1 -33111382#0 46679219#0 46679219#1 46679219#2 46679219#3 46679219#4 46679219#5 46679219#6 204408420#2 204408420#3 204408420#4"/>
    <route id="route_e3_e8" edges="E20 E12 175081037#1 179084400#1 179084400#2 258878956#0 258878956#1 258878956#2 258878956#3 258878956#4 258878956#5 258878956#7 258878956#10 207916357#1 207916357#2 207916357#3 721538379#0 721538379#1 721538378#0 E3 E25"/>
    <route id="route_e3_p1" edges="E20 E12 175081037#1 179084400#1 179084400#2 258878959#0 258878959#1 258878959#2 68756864#0 68756864#1 68756864#2 E2"/>
    <route id="route_e3_p11" edges="E20 E12 175081037#1 179084400#1 179084400#2 258878959#0 258878959#1 258878959#2 258878959#3 -68756861#2 E33"/>
    <route id="route_e3_p3" edges="E20 E12 175081037#1 179084400#1 179084400#2 258878956#0 258878956#1 258878956#2 258878956#3 258878956#4 258878956#5 68756870#1 68756870#2 E31"/>
    <route id="route_e3_p5" edges="E20 E12 175081037#1 179084400#1 179084400#2 258878956#0 258878956#1 258878956#2 258878956#3 258878956#4 258878956#5 258878956#7 258878956#10 32008537#1 32008537#2 E10"/>
    <route id="route_e3_p7" edges="E20 E12 175081037#1 179084400#1 179084400#2 258878956#0 258878956#1 258878956#2 258878956#3 258878956#4 258878956#5 258878956#7 33111547#2 33111547#3 33111547#4 33111547#5 33111547#5.47 520149464#0 520149464#1 E32"/>
    <route id="route_e3_p9" edges="E20 E12 175081037#1 179084400#1 179084400#2 258878956#0 258878956#1 258878956#2 258878956#3 258878956#4 258878956#5 258878956#7 33111547#2 33111547#3 33111547#4 33111547#5 33111547#5.47 -217018834#4 -217018834#3 j22"/>
    <route id="route_e4_e1" edges="-E22 -E21 E18 -E14 46678989#5 174921908#1 728070056#0 728070056#1 728404402 728404398 728022780#0 728022780#1 728022780#2 341760062#0 341760062#1 728022779#0 179084400#1 179084400#2 -374632640#16 -374632640#15 -374632640#14 -374632640#13"/>
    <route id="route_e4_e2" edges="-E22 -E21 E18 -E14 46678989#5 174921908#1 728070056#0 728070056#1 728404402 728404398 728022780#0 728022780#1 728022780#2 341760062#0 341760062#1 728022779#0 210342328#0 E23"/>
    <route id="route_e4_e3" edges="-E22 -E21 E18 -E14 46678989#5 174921908#1 728070056#0 728070056#1 728404402 728404398 728022780#0 728022780#1 728022780#2 341760062#0 341760062#1 728022779#0 179084399#0 169489044#0 E26"/>
    <route id="route_e4_e5" edges="-E22 -E21 E18 -E14 46678989#5 520217616 728039351 46696365 728039349 728039350#0 728039350#1 179084398#0"/>
    <route id="route_e4_e6" edges="-E22 -E21 E18 -E14 46678989#5 520217615#1 520217615#2 1328724321 -46697765 -96533041 -33111382#1 -33111382#0 -178778538 -33111381 -28302398#2 -28302398#1"/>
    <route id="route_e4_e7" edges="-E22 -E21 E18 -E14 46678989#5 520217615#1 520217615#2 1328724321 -46697765 -96533041 -33111382#1 -33111382#0 46679219#0 46679219#1 46679219#2 46679219#3 46679219#4 46679219#5 46679219#6 204408420#2 204408420#3 204408420#4"/>
    <route id="route_e4_e8" edges="-E22 -E21 E18 -E14 46678989#5 174921908#1 728070056#0 728070056#1 728404402 728404398 -314741788#2 -314741788#1.67 -314741788#1 -314741788#0 -68756861#2 -68756861#1 -68756861#0 -33111548#1 -33111548#0 520149464#0 520149464#1 520149464#1.32 520149464#2 -258878958#3 -258878958#2 -258878958#1 207916357#1 207916357#2 207916357#3 721538379#0 721538379#1 721538378#0 E3 E25"/>
    <route id="route_e4_p1" edges="-E22 -E21 E18 -E14 46678989#5 174921908#1 728070056#0 728070056#1 728404402 728404398 728022780#0 728022780#1 E2"/>
    <route id="route_e4_p11" edges="-E22 -E21 E18 -E14 46678989#5 174921908#1 728070056#0 728070056#1 728404402 728404398 -314741788#2 -314741788#1.67 -314741788#1 -314741788#0 -68756861#2 E33"/>
    <route id="route_e4_p3" edges="-E22 -E21 E18 -E14 46678989#5 174921908#1 728070056#0 728070056#1 728404402 728404398 728022780#0 728022780#1 728022780#2 341760062#0 -175154939#2 -175154939#1 -175154939#0 -520149463#1 -520149463#0 -68756869#3 E31"/>
    <route id="route_e4_p5" edges="-E22 -E21 E18 -E14 46678989#5 174921908#1 728070056#0 728070056#1 728404402 728404398 -314741788#2 -314741788#1.67 -314741788#1 -314741788#0 -68756861#2 -68756861#1 -68756861#0 -33111548#1 -33111548#0 520149464#0 520149464#1 520149464#1.32 520149464#2 -258878958#3 -258878958#2 -258878958#1 32008537#1 32008537#2 E10"/>
    <route id="route_e4_p7" edges="-E22 -E21 E18 -E14 46678989#5 174921908#1 728070056#0 728070056#1 728404402 728404398 -314741788#2 -314741788#1.67 -314741788#1 -314741788#0 -68756861#2 -68756861#1 -68756861#0 -33111548#1 -33111548#0 520149464#0 520149464#1 E32"/>
    <route id="route_e4_p9" edges="-E22 -E21 E18 -E14 46678989#5 174921908#1 728070056#0 728070056#1 728404402 728404398 -314741788#2 -314741788#1.67 -314741788#1 -314741788#0 -68756861#2 -68756861#1 -68756861#0 -33111548#1 -33111548#0 -217018834#4 -217018834#3 j22"/>
    <route id="route_e5_e1" edges="728427983#1 728453644 174921838#0 174921838#1 174921908#0 174921908#1 728070056#0 728070056#1 728404402 728404398 728022780#0 728022780#1 728022780#2 341760062#0 341760062#1 728022779#0 179084400#1 179084400#2 -374632640#16 -374632640#15 -374632640#14 -374632640#13"/>
    <route id="route_e5_e2" edges="728427983#1 728453644 174921838#0 174921838#1 174921908#0 174921908#1 728070056#0 728070056#1 728404402 728404398 728022780#0 728022780#1 728022780#2 341760062#0 341760062#1 728022779#0 210342328#0 E23"/>
    <route id="route_e5_e3" edges="728427983#1 728453644 174921838#0 174921838#1 174921908#0 174921908#1 728070056#0 728070056#1 728404402 728404398 728022780#0 728022780#1 728022780#2 341760062#0 341760062#1 728022779#0 179084399#0 169489044#0 E26"/>
    <route id="route_e5_e4" edges="728427983#1 728453644 174921838#0 174921838#1 174921908#0 -46678989#5 E14 -E18 E21 E22"/>
    <route id="route_e5_e6" edges="728427983#1 728453644 174921838#0 174921838#1 174921908#0 520217615#1 520217615#2 1328724321 -46697765 -96533041 -33111382#1 -33111382#0 -178778538 -33111381 -28302398#2 -28302398#1"/>
    <route id="route_e5_e7" edges="728427983#1 728453644 174921838#0 174921838#1 174921908#0 520217615#1 520217615#2 1328724321 -46697765 -96533041 -33111382#1 -33111382#0 46679219#0 46679219#1 46679219#2 46679219#3 46679219#4 46679219#5 46679219#6 204408420#2 204408420#3 204408420#4"/>
    <route id="route_e5_e8" edges="728427983#1 728453644 174921838#0 174921838#1 174921908#0 174921908#1 728070056#0 728070056#1 728404402 728404398 -314741788#2 -314741788#1.67 -314741788#1 -314741788#0 -68756861#2 -68756861#1 -68756861#0 -33111548#1 -33111548#0 520149464#0 520149464#1 520149464#1.32 520149464#2 -258878958#3 -258878958#2 -258878958#1 207916357#1 207916357#2 207916357#3 721538379#0 721538379#1 721538378#0 E3 E25"/>
    <route id="route_e5_p1" edges="728427983#1 728453644 174921838#0 174921838#1 174921908#0 174921908#1 728070056#0 728070056#1 728404402 728404398 728022780#0 728022780#1 E2"/>
    <route id="route_e5_p11" edges="728427983#1 728453644 174921838#0 174921838#1 174921908#0 174921908#1 728070056#0 728070056#1 728404402 728404398 -314741788#2 -314741788#1.67 -314741788#1 -314741788#0 -68756861#2 E33"/>
    <route id="route_e5_p3" edges="728427983#1 728453644 174921838#0 174921838#1 174921908#0 174921908#1 728070056#0 728070056#1 728404402 728404398 728022780#0 728022780#1 728022780#2 341760062#0 -175154939#2 -175154939#1 -175154939#0 -520149463#1 -520149463#0 -68756869#3 E31"/>
    <route id="route_e5_p5" edges="728427983#1 728453644 174921838#0 174921838#1 174921908#0 174921908#1 728070056#0 728070056#1 728404402 728404398 -314741788#2 -314741788#1.67 -314741788#1 -314741788#0 -68756861#2 -68756861#1 -68756861#0 -33111548#1 -33111548#0 520149464#0 520149464#1 520149464#1.32 520149464#2 -258878958#3 -258878958#2 -258878958#1 32008537#1 32008537#2 E10"/>
    <route id="route_e5_p7" edges="728427983#1 728453644 174921838#0 174921838#1 174921908#0 174921908#1 728070056#0 728070056#1 728404402 728404398 -314741788#2 -314741788#1.67 -314741788#1 -314741788#0 -68756861#2 -68756861#1 -68756861#0 -33111548#1 -33111548#0 520149464#0 520149464#1 E32"/>
    <route id="route_e5_p9" edges="728427983#1 728453644 174921838#0 174921838#1 174921908#0 174921908#1 728070056#0 728070056#1 728404402 728404398 -314741788#2 -314741788#1.67 -314741788#1 -314741788#0 -68756861#2 -68756861#1 -68756861#0 -33111548#1 -33111548#0 -217018834#4 -217018834#3 j22"/>
    <route id="route_e6_e1" edges="28302398#1 28302398#2 33111381 178778538 33111382#0 33111382#1 96533041 46697765 -636282886#1 -636282886#0 -258878959#3 -258878959#2 -258878959#1 -258878959#0 -374632640#16 -374632640#15 -374632640#14 -374632640#13"/>
    <route id="route_e6_e2" edges="28302398#1 28302398#2 33111381 178778538 33111382#0 33111382#1 96533041 46697765 -636282886#1 -636282886#0 -258878959#3 68756864#0 68756864#1 68756864#2 728022780#2 341760062#0 341760062#1 728022779#0 210342328#0 E23"/>
    <route id="route_e6_e3" edges="28302398#1 28302398#2 33111381 178778538 33111382#0 33111382#1 96533041 46697765 -636282886#1 -636282886#0 -258878959#3 68756864#0 68756864#1 68756864#2 728022780#2 341760062#0 341760062#1 728022779#0 179084399#0 169489044#0 E26"/>
    <route id="route_e6_e4" edges="28302398#1 28302398#2 33111381 178778538 33111382#0 33111382#1 96533041 46697765 -1328724321 -520217615#2 -520217615#1 -46678989#5 E14 -E18 E21 E22"/>
    <route id="route_e6_e5" edges="28302398#1 28302398#2 33111381 178778538 33111382#0 33111382#1 96533041 46697765 -1328724321 -520217615#2 -520217615#1 520217616 728039351 46696365 728039349 728039350#0 728039350#1 179084398#0"/>
    <route id="route_e6_e7" edges="28302398#1 28302398#2 33111381 178778538 46679219#0 46679219#1 46679219#2 46679219#3 46679219#4 46679219#5 46679219#6 204408420#2 204408420#3 204408420#4"/>
    <route id="route_e6_e8" edges="28302398#1 28302398#2 33111381 178778538 46679219#0 46679219#1 46679219#2 46679219#3 46679219#4 46679219#5 -178778539#1 -178778539#0 96530719#0 96530719#1 -68756871#0 -204408420#0 -204408419#1 -204408419#0 -498810734 -258878958#3 -258878958#2 -258878958#1 207916357#1 207916357#2 207916357#3 721538379#0 721538379#1 721538378#0 E3 E25"/>
    <route id="route_e6_p1" edges="28302398#1 28302398#2 33111381 178778538 33111382#0 33111382#1 96533041 46697765 -636282886#1 -636282886#0 -258878959#3 68756864#0 68756864#1 68756864#2 E2"/>
    <route id="route_e6_p11" edges="28302398#1 28302398#2 33111381 178778538 33111382#0 33111382#1 96533041 46697765 -636282886#1 -636282886#0 -68756861#2 E33"/>
    <route id="route_e6_p3" edges="28302398#1 28302398#2 33111381 178778538 33111382#0 33111382#1 96533041 46697765 -636282886#1 -636282886#0 -68756861#2 -68756861#1 -68756861#0 33111549#0 33111549#1 33111549#2 -68756869#3 E31"/>
    <route id="route_e6_p5" edges="28302398#1 28302398#2 33111381 178778538 46679219#0 46679219#1 46679219#2 46679219#3 46679219#4 46679219#5 -178778539#1 -178778539#0 96530719#0 96530719#1 -68756871#0 -204408420#0 -204408419#1 -204408419#0 -498810734 -258878958#3 -258878958#2 -258878958#1 32008537#1 32008537#2 E10"/>
    <route id="route_e6_p7" edges="28302398#1 28302398#2 33111381 178778538 33111382#0 33111382#1 96533041 46697765 -636282886#1 -636282886#0 -68756861#2 -68756861#1 -68756861#0 -33111548#1 -33111548#0 520149464#0 520149464#1 E32"/>
    <route id="route_e6_p9" edges="28302398#1 28302398#2 33111381 178778538 33111382#0 33111382#1 96533041 46697765 -636282886#1 -636282886#0 -68756861#2 -68756861#1 -68756861#0 -33111548#1 -33111548#0 -217018834#4 -217018834#3 j22"/>
    <route id="route_e7_e1" edges="-204408420#4 -204408420#3 -204408420#2 96532031#0 96532031#1 96532031#2 96532031#3 1385558999#0 1385558999#1 96531884#6 96531884#7 -46679219#2 -46679219#1 -46679219#0 33111382#0 33111382#1 96533041 46697765 -636282886#1 -636282886#0 -258878959#3 -258878959#2 -258878959#1 -258878959#0 -374632640#16 -374632640#15 -374632640#14 -374632640#13"/>
    <route id="route_e7_e2" edges="-204408420#4 -204408420#3 -204408420#2 96532031#0 96532031#1 96532031#2 96532031#3 1385558999#0 1385558999#1 96531884#6 96531884#7 -46679219#2 -46679219#1 -46679219#0 33111382#0 33111382#1 96533041 46697765 -636282886#1 -636282886#0 -258878959#3 68756864#0 68756864#1 68756864#2 728022780#2 341760062#0 341760062#1 728022779#0 210342328#0 E23"/>
    <route id="route_e7_e3" edges="-204408420#4 -204408420#3 -204408420#2 96532031#0 96532031#1 96532031#2 96532031#3 1385558999#0 1385558999#1 96531884#6 96531884#7 -46679219#2 -46679219#1 -46679219#0 33111382#0 33111382#1 96533041 46697765 -636282886#1 -636282886#0 -258878959#3 68756864#0 68756864#1 68756864#2 728022780#2 341760062#0 341760062#1 728022779#0 179084399#0 169489044#0 E26"/>
    <route id="route_e7_e4" edges="-204408420#4 -204408420#3 -204408420#2 96532031#0 96532031#1 96532031#2 96532031#3 1385558999#0 1385558999#1 96531884#6 96531884#7 -46679219#2 -46679219#1 -46679219#0 33111382#0 33111382#1 96533041 46697765 -1328724321 -520217615#2 -520217615#1 -46678989#5 E14 -E18 E21 E22"/>
    <route id="route_e7_e5" edges="-204408420#4 -204408420#3 -204408420#2 96532031#0 96532031#1 96532031#2 96532031#3 1385558999#0 1385558999#1 96531884#6 96531884#7 -46679219#2 -46679219#1 -46679219#0 33111382#0 33111382#1 96533041 46697765 -1328724321 -520217615#2 -520217615#1 520217616 728039351 46696365 728039349 728039350#0 728039350#1 179084398#0"/>
    <route id="route_e7_e6" edges="-204408420#4 -204408420#3 -204408420#2 96532031#0 96532031#1 96532031#2 96532031#3 1385558999#0 1385558999#1 96531884#6 96531884#7 -46679219#2 -46679219#1 -46679219#0 -178778538 -33111381 -28302398#2 -28302398#1"/>
    <route id="route_e7_e8" edges="-204408420#4 -204408420#3 -204408420#2 -204408420#1 -204408420#0 -204408419#1 -204408419#0 -498810734 -258878958#3 -258878958#2 -258878958#1 207916357#1 207916357#2 207916357#3 721538379#0 721538379#1 721538378#0 E3 E25"/>
    <route id="route_e7_p1" edges="-204408420#4 -204408420#3 -204408420#2 96532031#0 96532031#1 96532031#2 96532031#3 1385558999#0 1385558999#1 96531884#6 96531884#7 -46679219#2 -46679219#1 -46679219#0 33111382#0 33111382#1 96533041 46697765 -636282886#1 -636282886#0 -258878959#3 68756864#0 68756864#1 68756864#2 E2"/>
    <route id="route_e7_p11" edges="-204408420#4 -204408420#3 -204408420#2 -204408420#1 68756871#0 68756871#1 217018820#0 217018820#1 217018834#0 217018834#1 217018834#2 217018834#3 217018834#4 33111548#0 33111548#1 68756861#0 68756861#1 E33"/>
    <route id="route_e7_p3" edges="-204408420#4 -204408420#3 -204408420#2 -204408420#1 68756871#0 68756871#1 217018820#0 217018820#1 217018834#0 217018834#1 217018834#2 217018834#3 217018834#4 -33111547#5 -33111547#5.70 -33111547#4 68756869#0 68756869#1 68756869#2 E31"/>
    <route id="route_e7_p5" edges="-204408420#4 -204408420#3 -204408420#2 -204408420#1 -204408420#0 -204408419#1 -204408419#0 -498810734 -258878958#3 -258878958#2 -258878958#1 32008537#1 32008537#2 E10"/>
    <route id="route_e7_p7" edges="-204408420#4 -204408420#3 -204408420#2 -204408420#1 -204408420#0 -204408419#1 -204408419#0 -498810734 -520149464#2 -520149464#1 E32"/>
    <route id="route_e7_p9" edges="-204408420#4 -204408420#3 -204408420#2 -204408420#1 68756871#0 68756871#1 217018820#0 217018820#1 217018834#0 217018834#1 217018834#2 j22"/>
    <route id="route_e8_e1" edges="E24 E6 736929016#1 736929016#2 217421750#0 217421750#1 32008537#1 32008537#2 32008537#5 32008537#7 32008537#8 366459037#0 366459037#1 366459037#2 -374632640#16 -374632640#15 -374632640#14 -374632640#13"/>
    <route id="route_e8_e2" edges="E24 E6 736929016#1 736929016#2 217421750#0 217421750#1 32008537#1 32008537#2 32008537#5 32008537#7 32008537#8 366459037#0 366459037#1 366459037#2 42762533#0 42762533#1 210342328#0 E23"/>
    <route id="route_e8_e3" edges="E24 E6 736929016#1 736929016#2 217421750#0 217421750#1 32008537#1 32008537#2 32008537#5 32008537#7 32008537#8 366459037#0 366459037#1 366459037#2 42762533#0 42762533#1 179084399#0 169489044#0 E26"/>
    <route id="route_e8_e4" edges="E24 E6 169516526#0 169516526#1 169516526#2 56131478#0 56131478#1 56131478#2 -520149464#2 -520149464#1 -520149464#1.49 -520149464#0 33111548#0 33111548#1 68756861#0 68756861#1 68756861#2 636282886#0 636282886#1 -1328724321 -520217615#2 -520217615#1 -46678989#5 E14 -E18 E21 E22"/>
    <route id="route_e8_e5" edges="E24 E6 169516526#0 169516526#1 169516526#2 56131478#0 56131478#1 56131478#2 -520149464#2 -520149464#1 -520149464#1.49 -520149464#0 33111548#0 33111548#1 68756861#0 68756861#1 68756861#2 636282886#0 636282886#1 -1328724321 -520217615#2 -520217615#1 520217616 728039351 46696365 728039349 728039350#0 728039350#1 179084398#0"/>
    <route id="route_e8_e6" edges="E24 E6 169516526#0 169516526#1 169516526#2 56131478#0 56131478#1 56131478#2 498810734 204408419#0 204408419#1 204408420#0 68756871#0 -96530719#1 -96530719#0 178778539#0 178778539#1 -46679219#5 -46679219#4 -46679219#3 -46679219#2 -46679219#1 -46679219#0 -178778538 -33111381 -28302398#2 -28302398#1"/>
    <route id="route_e8_e7" edges="E24 E6 169516526#0 169516526#1 169516526#2 56131478#0 56131478#1 56131478#2 498810734 204408419#0 204408419#1 204408420#0 204408420#1 204408420#2 204408420#3 204408420#4"/>
    <route id="route_e8_p1" edges="E24 E6 169516526#0 169516526#1 169516526#2 56131478#0 56131478#1 56131478#2 -520149464#2 -520149464#1 -520149464#1.49 -520149464#0 33111548#0 33111548#1 68756861#0 68756861#1 68756861#2 -258878959#3 68756864#0 68756864#1 68756864#2 E2"/>
    <route id="route_e8_p11" edges="E24 E6 169516526#0 169516526#1 169516526#2 56131478#0 56131478#1 56131478#2 -520149464#2 -520149464#1 -520149464#1.49 -520149464#0 33111548#0 33111548#1 68756861#0 68756861#1 E33"/>
    <route id="route_e8_p3" edges="E24 E6 736929016#1 736929016#2 217421750#0 217421750#1 32008537#1 32008537#2 33111547#2 33111547#3 68756869#0 68756869#1 68756869#2 E31"/>
    <route id="route_e8_p5" edges="E24 E6 736929016#1 736929016#2 217421750#0 217421750#1 32008537#1 32008537#2 E10"/>
    <route id="route_e8_p7" edges="E24 E6 169516526#0 169516526#1 169516526#2 56131478#0 56131478#1 56131478#2 -520149464#2 -520149464#1 E32"/>
    <route id="route_e8_p9" edges="E24 E6 169516526#0 169516526#1 169516526#2 56131478#0 56131478#1 56131478#2 -520149464#2 -520149464#1 -520149464#1.49 -520149464#0 -217018834#4 -217018834#3 j22"/>
    <route id="route_p10_e1" edges="-E8 217018834#3 217018834#4 -33111547#5 -33111547#5.70 -33111547#4 -33111547#3 -33111547#2 32008537#5 32008537#7 32008537#8 366459037#0 366459037#1 366459037#2 -374632640#16 -374632640#15 -374632640#14 -374632640#13"/>
    <route id="route_p10_e2" edges="-E8 217018834#3 217018834#4 -33111547#5 -33111547#5.70 -33111547#4 -33111547#3 -33111547#2 32008537#5 32008537#7 32008537#8 366459037#0 366459037#1 366459037#2 42762533#0 42762533#1 210342328#0 E23"/>
    <route id="route_p10_e3" edges="-E8 217018834#3 217018834#4 -33111547#5 -33111547#5.70 -33111547#4 -33111547#3 -33111547#2 32008537#5 32008537#7 32008537#8 366459037#0 366459037#1 366459037#2 42762533#0 42762533#1 179084399#0 169489044#0 E26"/>
    <route id="route_p10_e4" edges="-E8 217018834#3 217018834#4 33111548#0 33111548#1 68756861#0 68756861#1 68756861#2 636282886#0 636282886#1 -1328724321 -520217615#2 -520217615#1 -46678989#5 E14 -E18 E21 E22"/>
    <route id="route_p10_e5" edges="-E8 217018834#3 217018834#4 33111548#0 33111548#1 68756861#0 68756861#1 68756861#2 636282886#0 636282886#1 -1328724321 -520217615#2 -520217615#1 520217616 728039351 46696365 728039349 728039350#0 728039350#1 179084398#0"/>
    <route id="route_p10_e6" edges="-E8 217018834#3 217018834#4 33111548#0 33111548#1 68756861#0 68756861#1 68756861#2 636282886#0 636282886#1 -46697765 -96533041 -33111382#1 -33111382#0 -178778538 -33111381 -28302398#2 -28302398#1"/>
    <route id="route_p10_e7" edges="-E8 -217018834#2 -217018834#1 -217018834#0 -217018820#1 -217018820#0 -68756871#1 -68756871#0 204408420#1 204408420#2 204408420#3 204408420#4"/>
    <route id="route_p10_e8" edges="-E8 217018834#3 217018834#4 520149464#0 520149464#1 520149464#1.32 520149464#2 -258878958#3 -258878958#2 -258878958#1 207916357#1 207916357#2 207916357#3 721538379#0 721538379#1 721538378#0 E3 E25"/>
    <route id="route_p12_e1" edges="-E0 68756861#2 -258878959#3 -258878959#2 -258878959#1 -258878959#0 -374632640#16 -374632640#15 -374632640#14 -374632640#13"/>
    <route id="route_p12_e2" edges="-E0 68756861#2 -258878959#3 68756864#0 68756864#1 68756864#2 728022780#2 341760062#0 341760062#1 728022779#0 210342328#0 E23"/>
    <route id="route_p12_e3" edges="-E0 68756861#2 -258878959#3 68756864#0 68756864#1 68756864#2 728022780#2 341760062#0 341760062#1 728022779#0 179084399#0 169489044#0 E26"/>
    <route id="route_p12_e4" edges="-E0 68756861#2 636282886#0 636282886#1 -1328724321 -520217615#2 -520217615#1 -46678989#5 E14 -E18 E21 E22"/>
    <route id="route_p12_e5" edges="-E0 68756861#2 636282886#0 636282886#1 -1328724321 -520217615#2 -520217615#1 520217616 728039351 46696365 728039349 728039350#0 728039350#1 179084398#0"/>
    <route id="route_p12_e6" edges="-E0 68756861#2 636282886#0 636282886#1 -46697765 -96533041 -33111382#1 -33111382#0 -178778538 -33111381 -28302398#2 -28302398#1"/>
    <route id="route_p12_e7" edges="-E0 -68756861#1 -68756861#0 -33111548#1 -33111548#0 -217018834#4 -217018834#3 -217018834#2 -217018834#1 -217018834#0 -217018820#1 -217018820#0 -68756871#1 -68756871#0 204408420#1 204408420#2 204408420#3 204408420#4"/>
    <route id="route_p12_e8" edges="-E0 -68756861#1 -68756861#0 -33111548#1 -33111548#0 520149464#0 520149464#1 520149464#1.32 520149464#2 -258878958#3 -258878958#2 -258878958#1 207916357#1 207916357#2 207916357#3 721538379#0 721538379#1 721538378#0 E3 E25"/>
    <route id="route_p2_e1" edges="E1 46696367#2 730198315 341760063#0 341760063#1 728404399 728404400 728404401 728058748#0 728058748#1 174921908#1 728070056#0 728070056#1 728404402 728404398 728022780#0 728022780#1 728022780#2 341760062#0 341760062#1 728022779#0 179084400#1 179084400#2 -374632640#16 -374632640#15 -374632640#14 -374632640#13"/>
    <route id="route_p2_e2" edges="E1 46696367#2 730198315 341760063#0 341760063#1 728404399 728404400 728404401 728058748#0 728058748#1 174921908#1 728070056#0 728070056#1 728404402 728404398 728022780#0 728022780#1 728022780#2 341760062#0 341760062#1 728022779#0 210342328#0 E23"/>
    <route id="route_p2_e3" edges="E1 46696367#2 730198315 341760063#0 341760063#1 728404399 728404400 728404401 728058748#0 728058748#1 174921908#1 728070056#0 728070056#1 728404402 728404398 728022780#0 728022780#1 728022780#2 341760062#0 341760062#1 728022779#0 179084399#0 169489044#0 E26"/>
    <route id="route_p2_e4" edges="E1 46696367#2 730198315 341760063#0 341760063#1 728404399 728404400 728404401 728058748#0 728058748#1 -46678989#5 E14 -E18 E21 E22"/>
    <route id="route_p2_e5" edges="E1 46696367#2 730198315 341760063#0 341760063#1 728404399 728404400 728404401 728058748#0 728058748#1 520217616 728039351 46696365 728039349 728039350#0 728039350#1 179084398#0"/>