<?xml version="1.0" encoding="UTF-8"?>
<configuration>
    <input>
        <net-file value="tenjin_fixed.net.xml"/>
        <route-files value="routes.rou.xml"/>
    </input>
    <time>
        <begin value="0"/>
        <end value="10800"/>
    </time>
    <output>
        <tripinfo-output value="tripinfo.xml"/>
    </output>
</configuration>