<?xml version="1.0" encoding="UTF-8"?>
<configuration>
    <input>
        <net-file value="tenjin_bottom_merge.net.xml"/>
        <route-files value="traffic.rou.xml"/>
    </input>
    <time>
        <begin value="0"/>
        <end value="10800"/>
    </time>
    <routing>
        <junction-taz value="true"/>
    </routing>
    <output>
        <tripinfo-output value="tripinfo.xml"/>
    </output>
</configuration>