<?xml version="1.0" encoding="UTF-8"?>
<!--
  ============================================================
  routes_B.rou.xml  -  シナリオB（現状）
  天神通線を2車線の対面通行に変更したネットワーク
  ============================================================
  シナリオAとの主な差異:
    ・天神通線（南向き）tenjin_dori_s が使用可能になる
    ・渡辺通りの混雑時に天神通線南向きへの迂回ルートを追加
    ・車両台数がわずかに増加（B: A+約2.5%増）
      朝ピーク: 800台（同）  日中: 420台  夕方: 770台
      夜間: 260台  深夜: 85台
  
  OD割合: シナリオAと同一（天神通線利用が分散効果をもたらすか検証）
-->

<routes xmlns:xsi="http://www.w3.org/2001/XMLSchema-instance"
        xsi:noNamespaceSchemaLocation="http://sumo.dlr.de/xsd/routes_file.xsd">

  <!-- ========================================================
       車両タイプ定義（シナリオAと共通）
  ======================================================== -->

  <vType id="car_standard"
         accel="2.6" decel="4.5" sigma="0.5"
         length="4.5" minGap="2.5" maxSpeed="13.89"
         color="0.2,0.6,1.0"
         carFollowModel="Krauss" laneChangeModel="LC2013"
         jmIgnoreKeepClearTime="5"/>

  <vType id="car_commute"
         accel="2.8" decel="4.5" sigma="0.4"
         length="4.5" minGap="2.0" maxSpeed="13.89"
         color="0.1,0.4,0.9"
         carFollowModel="Krauss" laneChangeModel="LC2013"
         jmIgnoreKeepClearTime="3"/>

  <vType id="car_visitor"
         accel="2.0" decel="4.5" sigma="0.6"
         length="4.5" minGap="3.0" maxSpeed="11.11"
         color="0.8,0.5,0.1"
         carFollowModel="Krauss" laneChangeModel="LC2013"/>

  <vType id="van_business"
         accel="2.0" decel="4.0" sigma="0.5"
         length="5.5" minGap="2.5" maxSpeed="11.11"
         color="0.6,0.6,0.6"
         carFollowModel="Krauss" laneChangeModel="LC2013"/>

  <vType id="car_transit"
         accel="2.6" decel="4.5" sigma="0.5"
         length="4.5" minGap="2.5" maxSpeed="13.89"
         color="0.5,0.8,0.5"
         carFollowModel="Krauss" laneChangeModel="LC2013"/>


  <!-- ========================================================
       ルート定義
       シナリオB追加: 天神通線南向き（tenjin_dori_s）を使った
                     迂回ルートが利用可能
  ======================================================== -->

  <!-- OD-1: 渡辺通り南 → 天神中心部 (20%) -->
  <route id="r_watanabe_to_center"
         edges="watanabe_n center_approach tenjin_center"/>

  <!-- OD-2: 明治通り東 → 市役所周辺 (15%) -->
  <route id="r_meiji_to_cityhall"
         edges="meiji_w cityhall_approach tenjin_center"/>

  <!-- OD-3: 昭和通り → 天神商業施設 (15%) -->
  <route id="r_showa_to_commercial"
         edges="showa_w commercial_approach tenjin_center"/>

  <!-- OD-4: 国体道路 → 天神中心部 (10%) -->
  <route id="r_kokutai_to_center"
         edges="kokutai_n center_approach tenjin_center"/>

  <!-- OD-5: 天神中心部 → 渡辺通り南 (15%) -->
  <route id="r_center_to_watanabe"
         edges="tenjin_center watanabe_s_approach watanabe_s"/>

  <!-- OD-6: 天神中心部 → 明治通り東 (10%) -->
  <route id="r_center_to_meiji"
         edges="tenjin_center meiji_e_approach meiji_e"/>

  <!-- OD-7: 天神中心部 → 昭和通り方面 (8%) -->
  <route id="r_center_to_other"
         edges="tenjin_center showa_e"/>

  <!-- OD-8: 通過交通 南北 (3.5%) -->
  <route id="r_transit_ns"
         edges="watanabe_n tenjin_center watanabe_s"/>

  <!-- OD-8: 通過交通 東西 (3.5%) -->
  <route id="r_transit_ew"
         edges="meiji_w tenjin_center meiji_e"/>

  <!-- ========================================================
       シナリオB 追加ルート: 天神通線南向き利用（迂回）
       渡辺通りが混雑した場合にTraCIが誘導するルート
  ======================================================== -->

  <!-- 迂回A: 渡辺通り南行き → 天神通線南向き経由 → 博多方面 -->
  <route id="r_detour_via_tenjin_s"
         edges="tenjin_center tenjin_dori_s watanabe_s_south watanabe_s"/>

  <!-- 迂回B: 明治通り → 天神通線南向き経由 → 昭和通り方面 -->
  <route id="r_detour_meiji_via_tenjin_s"
         edges="meiji_w tenjin_dori_s showa_e"/>

  <!-- 迂回C: 国体道路流入 → 天神通線北向き → 中心部へ -->
  <route id="r_kokutai_via_tenjin_n"
         edges="kokutai_n tenjin_dori_n tenjin_center"/>


  <!-- ========================================================
       車両フロー — 時間帯別（シナリオB）

       period計算式: 時間帯秒数 / (総台数 × OD割合)
  ======================================================== -->

  <!-- ── 朝ピーク (07:00-09:00) ── 800台（シナリオAと同台数） -->
  <flow id="f_peak_am_od1" type="car_commute" route="r_watanabe_to_center"
        begin="25200" end="32400" period="45.0" departLane="best" departSpeed="max"/>

  <flow id="f_peak_am_od2" type="car_commute" route="r_meiji_to_cityhall"
        begin="25200" end="32400" period="60.0" departLane="best" departSpeed="max"/>

  <flow id="f_peak_am_od3" type="car_commute" route="r_showa_to_commercial"
        begin="25200" end="32400" period="60.0" departLane="best" departSpeed="max"/>

  <flow id="f_peak_am_od4" type="car_commute" route="r_kokutai_to_center"
        begin="25200" end="32400" period="90.0" departLane="best" departSpeed="max"/>

  <flow id="f_peak_am_od5" type="car_standard" route="r_center_to_watanabe"
        begin="25200" end="32400" period="60.0" departLane="best" departSpeed="max"/>

  <flow id="f_peak_am_od6" type="van_business" route="r_center_to_meiji"
        begin="25200" end="32400" period="90.0" departLane="best" departSpeed="max"/>

  <flow id="f_peak_am_od7" type="car_visitor" route="r_center_to_other"
        begin="25200" end="32400" period="112.5" departLane="best" departSpeed="max"/>

  <flow id="f_peak_am_od8_ns" type="car_transit" route="r_transit_ns"
        begin="25200" end="32400" period="257.1" departLane="best" departSpeed="max"/>
  <flow id="f_peak_am_od8_ew" type="car_transit" route="r_transit_ew"
        begin="25200" end="32400" period="257.1" departLane="best" departSpeed="max"/>


  <!-- ── 日中オフピーク (09:00-16:00) ── 420台（Aより+20台） -->
  <!-- OD-1: 420 × 20% = 84台 → period = 25200/84 = 300.0秒 -->
  <flow id="f_offpeak_od1" type="car_visitor" route="r_watanabe_to_center"
        begin="32400" end="57600" period="300.0" departLane="best" departSpeed="max"/>

  <flow id="f_offpeak_od2" type="car_standard" route="r_meiji_to_cityhall"
        begin="32400" end="57600" period="400.0" departLane="best" departSpeed="max"/>

  <flow id="f_offpeak_od3" type="car_visitor" route="r_showa_to_commercial"
        begin="32400" end="57600" period="400.0" departLane="best" departSpeed="max"/>

  <flow id="f_offpeak_od4" type="car_standard" route="r_kokutai_to_center"
        begin="32400" end="57600" period="600.0" departLane="best" departSpeed="max"/>

  <flow id="f_offpeak_od5" type="car_standard" route="r_center_to_watanabe"
        begin="32400" end="57600" period="400.0" departLane="best" departSpeed="max"/>

  <flow id="f_offpeak_od6" type="van_business" route="r_center_to_meiji"
        begin="32400" end="57600" period="600.0" departLane="best" departSpeed="max"/>

  <flow id="f_offpeak_od7" type="car_visitor" route="r_center_to_other"
        begin="32400" end="57600" period="750.0" departLane="best" departSpeed="max"/>

  <flow id="f_offpeak_od8_ns" type="car_transit" route="r_transit_ns"
        begin="32400" end="57600" period="857.1" departLane="best" departSpeed="max"/>
  <flow id="f_offpeak_od8_ew" type="car_transit" route="r_transit_ew"
        begin="32400" end="57600" period="857.1" departLane="best" departSpeed="max"/>


  <!-- ── 夕方ピーク (16:00-19:00) ── 770台（Aより+20台） -->
  <flow id="f_peak_pm_od1" type="car_standard" route="r_watanabe_to_center"
        begin="57600" end="68400" period="46.8" departLane="best" departSpeed="max"/>

  <flow id="f_peak_pm_od2" type="car_standard" route="r_meiji_to_cityhall"
        begin="57600" end="68400" period="62.3" departLane="best" departSpeed="max"/>

  <flow id="f_peak_pm_od3" type="car_visitor" route="r_showa_to_commercial"
        begin="57600" end="68400" period="62.3" departLane="best" departSpeed="max"/>

  <flow id="f_peak_pm_od4" type="car_standard" route="r_kokutai_to_center"
        begin="57600" end="68400" period="93.5" departLane="best" departSpeed="max"/>

  <!-- 夕方帰宅: 天神通線南向きを一部使用 -->
  <flow id="f_peak_pm_od5a" type="car_commute" route="r_center_to_watanabe"
        begin="57600" end="68400" period="62.3" departLane="best" departSpeed="max"/>

  <!-- 天神通線南向き迂回（夕方ピーク時にTraCIが誘導） -->
  <flow id="f_peak_pm_od5b_detour" type="car_commute" route="r_detour_via_tenjin_s"
        begin="57600" end="68400" period="249.1" departLane="best" departSpeed="max"/>

  <flow id="f_peak_pm_od6" type="car_commute" route="r_center_to_meiji"
        begin="57600" end="68400" period="93.5" departLane="best" departSpeed="max"/>

  <flow id="f_peak_pm_od7" type="car_visitor" route="r_center_to_other"
        begin="57600" end="68400" period="116.9" departLane="best" departSpeed="max"/>

  <flow id="f_peak_pm_od8_ns" type="car_transit" route="r_transit_ns"
        begin="57600" end="68400" period="267.1" departLane="best" departSpeed="max"/>
  <flow id="f_peak_pm_od8_ew" type="car_transit" route="r_transit_ew"
        begin="57600" end="68400" period="267.1" departLane="best" departSpeed="max"/>


  <!-- ── 夜間 (19:00-22:00) ── 260台 -->
  <flow id="f_night_od1" type="car_standard" route="r_watanabe_to_center"
        begin="68400" end="79200" period="156.0" departLane="best" departSpeed="max"/>

  <flow id="f_night_od3" type="car_visitor" route="r_showa_to_commercial"
        begin="68400" end="79200" period="208.0" departLane="best" departSpeed="max"/>

  <flow id="f_night_od5" type="car_standard" route="r_center_to_watanabe"
        begin="68400" end="79200" period="156.0" departLane="best" departSpeed="max"/>

  <flow id="f_night_od6" type="car_standard" route="r_center_to_meiji"
        begin="68400" end="79200" period="312.0" departLane="best" departSpeed="max"/>

  <flow id="f_night_od8_ns" type="car_transit" route="r_transit_ns"
        begin="68400" end="79200" period="593.1" departLane="best" departSpeed="max"/>


  <!-- ── 深夜 (22:00-翌7:00) ── 85台 -->
  <flow id="f_latenight_a_od5" type="car_standard" route="r_center_to_watanabe"
        begin="79200" end="86400" period="564.7" departLane="best" departSpeed="max"/>

  <flow id="f_latenight_a_od8" type="car_transit" route="r_transit_ns"
        begin="79200" end="86400" period="847.1" departLane="best" departSpeed="max"/>

  <flow id="f_latenight_b_od5" type="car_standard" route="r_center_to_watanabe"
        begin="0" end="25200" period="1693.3" departLane="best" departSpeed="max"/>

  <flow id="f_latenight_b_od8" type="car_transit" route="r_transit_ns"
        begin="0" end="25200" period="2372.5" departLane="best" departSpeed="max"/>

</routes>
