<?xml version="1.0" encoding="UTF-8"?>
<!--
  ============================================================
  tl_B.add.xml  -  シナリオB（現状）信号制御設定
  天神通線2車線対面通行化に対応した信号タイミング
  ============================================================
  シナリオAからの変更点:
    ・市役所入口: 天神通線南向き(tenjin_dori_s)フェーズを追加
                 右折フェーズ延長（10→12秒）
    ・天神南   : 天神通線南向きフェーズを追加（双方向対応）
    ・その他交差点: シナリオAと同一
-->

<additional xmlns:xsi="http://www.w3.org/2001/XMLSchema-instance"
            xsi:noNamespaceSchemaLocation="http://sumo.dlr.de/xsd/additional_file.xsd">

  <!-- ============================================================
       検知器（シナリオA + 天神通線南向き追加）
  ============================================================ -->

  <laneAreaDetector id="det_watanabe_n"
                    lane="watanabe_n_0"
                    pos="0" endPos="-1" freq="60"
                    file="output/det_watanabe_n.xml" friendlyPos="true"/>

  <laneAreaDetector id="det_watanabe_s"
                    lane="watanabe_s_0"
                    pos="0" endPos="-1" freq="60"
                    file="output/det_watanabe_s.xml" friendlyPos="true"/>

  <laneAreaDetector id="det_meiji_e"
                    lane="meiji_e_0"
                    pos="0" endPos="-1" freq="60"
                    file="output/det_meiji_e.xml" friendlyPos="true"/>

  <laneAreaDetector id="det_showa_w"
                    lane="showa_w_0"
                    pos="0" endPos="-1" freq="60"
                    file="output/det_showa_w.xml" friendlyPos="true"/>

  <!-- 天神通線 北向き -->
  <laneAreaDetector id="det_tenjin_dori_n"
                    lane="tenjin_dori_n_0"
                    pos="0" endPos="-1" freq="60"
                    file="output/det_tenjin_dori_n.xml" friendlyPos="true"/>

  <!-- 天神通線 南向き（シナリオB新規追加） -->
  <laneAreaDetector id="det_tenjin_dori_s"
                    lane="tenjin_dori_s_0"
                    pos="0" endPos="-1" freq="60"
                    file="output/det_tenjin_dori_s.xml" friendlyPos="true"/>


  <!-- ============================================================
       信号制御プログラム
       シナリオB: 天神通線南向きに対応したフェーズ追加
  ============================================================ -->

  <!-- 市役所入口交差点 (tl_cityhall)
       シナリオB変更:
         - 天神通線南向きフェーズを副方向に追加
         - 右折フェーズ 10→12秒（天神通線合流の安全確保）
         - サイクル長: 45+3+12+3+32+3+1 = 99秒（Aより+4秒）
  -->
  <tlLogic id="tl_cityhall" type="static" programID="scenarioB" offset="0">
    <!-- 主方向（渡辺通り）青 45秒 -->
    <phase duration="45" state="GGrrrrGGrrrr"/>
    <phase duration="3"  state="yyrrrryyrrrrr"/>
    <!-- 右折フェーズ 12秒（天神通線合流安全確保） -->
    <phase duration="12" state="rrGrrrrrGrrr"/>
    <phase duration="3"  state="rryrrrrryrrrr"/>
    <!-- 副方向（天神通線 北向き+南向き 双方向）青 32秒 -->
    <phase duration="32" state="rrrrGGrrrrGG"/>
    <phase duration="3"  state="rrrryyrrrryy"/>
    <!-- 全赤 1秒 -->
    <phase duration="1"  state="rrrrrrrrrrrr"/>
  </tlLogic>

  <!-- 日本銀行前交差点 (tl_boj)
       シナリオAと変更なし（明治通り×渡辺通り、天神通線に直接面しない）
       サイクル長: 105秒
  -->
  <tlLogic id="tl_boj" type="static" programID="scenarioB" offset="15">
    <phase duration="50" state="GGrrrrGGrrrr"/>
    <phase duration="3"  state="yyrrrryyrrrrr"/>
    <phase duration="10" state="rrGrrrrrGrrr"/>
    <phase duration="3"  state="rryrrrrryrrrr"/>
    <phase duration="35" state="rrrrGGrrrrGG"/>
    <phase duration="3"  state="rrrryyrrrryy"/>
    <phase duration="1"  state="rrrrrrrrrrrr"/>
  </tlLogic>

  <!-- 天神南交差点 (tl_tenjin_south)
       シナリオB変更:
         - 天神通線北向き・南向き 双方向フェーズに変更
         - サイクル長: 40+3+8+3+32+3+1 = 90秒（Aより+2秒）
  -->
  <tlLogic id="tl_tenjin_south" type="static" programID="scenarioB" offset="30">
    <!-- 主方向（昭和通り）青 40秒 -->
    <phase duration="40" state="GGrrrrGGrrrr"/>
    <phase duration="3"  state="yyrrrryyrrrrr"/>
    <!-- 右折フェーズ 8秒 -->
    <phase duration="8"  state="rrGrrrrrGrrr"/>
    <phase duration="3"  state="rryrrrrryrrrr"/>
    <!-- 副方向（天神通線 双方向）青 32秒 -->
    <phase duration="32" state="rrrrGGrrrrGG"/>
    <phase duration="3"  state="rrrryyrrrryy"/>
    <phase duration="1"  state="rrrrrrrrrrrr"/>
  </tlLogic>

  <!-- 大丸前交差点 (tl_daimaru)
       シナリオAと変更なし: サイクル長70秒
  -->
  <tlLogic id="tl_daimaru" type="static" programID="scenarioB" offset="0">
    <phase duration="35" state="GGrrGGrr"/>
    <phase duration="3"  state="yyrryyrr"/>
    <phase duration="25" state="rrGGrrGG"/>
    <phase duration="3"  state="rryyrryy"/>
    <phase duration="4"  state="rrrrrrrr"/>
  </tlLogic>

  <!-- 赤坂交差点（国体道路）(tl_akasaka)
       シナリオAと変更なし: サイクル長112秒
  -->
  <tlLogic id="tl_akasaka" type="static" programID="scenarioB" offset="45">
    <phase duration="50" state="GGrrrrGGrrrr"/>
    <phase duration="3"  state="yyrrrryyrrrrr"/>
    <phase duration="12" state="rrGrrrrrGrrr"/>
    <phase duration="3"  state="rryrrrrryrrrr"/>
    <phase duration="40" state="rrrrGGrrrrGG"/>
    <phase duration="3"  state="rrrryyrrrryy"/>
    <phase duration="1"  state="rrrrrrrrrrrr"/>
  </tlLogic>

</additional>
