<?xml version="1.0" encoding="UTF-8"?>
<routes>
    
    <vType id="car" vClass="passenger" sigma="0.5"/>

    
    
    <flow id="flow_e1_to_e2" type="car" fromJunction="e1" toJunction="e2" begin="0" end="31536000" probability="0.017361"/>
    <flow id="flow_e1_to_e3" type="car" fromJunction="e1" toJunction="e3" begin="0" end="31536000" probability="0.017361"/>
    <flow id="flow_e1_to_e4" type="car" fromJunction="e1" toJunction="e4" begin="0" end="31536000" probability="0.017361"/>
    <flow id="flow_e1_to_e5" type="car" fromJunction="e1" toJunction="e5" begin="0" end="31536000" probability="0.017361"/>
    <flow id="flow_e1_to_e6" type="car" fromJunction="e1" toJunction="e6" begin="0" end="31536000" probability="0.017361"/>
    <flow id="flow_e1_to_e7" type="car" fromJunction="e1" toJunction="e7" begin="0" end="31536000" probability="0.017361"/>
    <flow id="flow_e1_to_e8" type="car" fromJunction="e1" toJunction="e8" begin="0" end="31536000" probability="0.017361"/>
    <flow id="flow_e1_to_e9" type="car" fromJunction="e1" toJunction="e9" begin="0" end="31536000" probability="0.017361"/>
    <flow id="flow_e2_to_e1" type="car" fromJunction="e2" toJunction="e1" begin="0" end="31536000" probability="0.017361"/>
    <flow id="flow_e2_to_e3" type="car" fromJunction="e2" toJunction="e3" begin="0" end="31536000" probability="0.017361"/>
    <flow id="flow_e2_to_e4" type="car" fromJunction="e2" toJunction="e4" begin="0" end="31536000" probability="0.017361"/>
    <flow id="flow_e2_to_e5" type="car" fromJunction="e2" toJunction="e5" begin="0" end="31536000" probability="0.017361"/>
    <flow id="flow_e2_to_e6" type="car" fromJunction="e2" toJunction="e6" begin="0" end="31536000" probability="0.017361"/>
    <flow id="flow_e2_to_e7" type="car" fromJunction="e2" toJunction="e7" begin="0" end="31536000" probability="0.017361"/>
    <flow id="flow_e2_to_e8" type="car" fromJunction="e2" toJunction="e8" begin="0" end="31536000" probability="0.017361"/>
    <flow id="flow_e2_to_e9" type="car" fromJunction="e2" toJunction="e9" begin="0" end="31536000" probability="0.017361"/>
    <flow id="flow_e3_to_e1" type="car" fromJunction="e3" toJunction="e1" begin="0" end="31536000" probability="0.017361"/>
    <flow id="flow_e3_to_e2" type="car" fromJunction="e3" toJunction="e2" begin="0" end="31536000" probability="0.017361"/>
    <flow id="flow_e3_to_e4" type="car" fromJunction="e3" toJunction="e4" begin="0" end="31536000" probability="0.017361"/>
    <flow id="flow_e3_to_e5" type="car" fromJunction="e3" toJunction="e5" begin="0" end="31536000" probability="0.017361"/>
    <flow id="flow_e3_to_e6" type="car" fromJunction="e3" toJunction="e6" begin="0" end="31536000" probability="0.017361"/>
    <flow id="flow_e3_to_e7" type="car" fromJunction="e3" toJunction="e7" begin="0" end="31536000" probability="0.017361"/>
    <flow id="flow_e3_to_e8" type="car" fromJunction="e3" toJunction="e8" begin="0" end="31536000" probability="0.017361"/>
    <flow id="flow_e3_to_e9" type="car" fromJunction="e3" toJunction="e9" begin="0" end="31536000" probability="0.017361"/>
    <flow id="flow_e4_to_e1" type="car" fromJunction="e4" toJunction="e1" begin="0" end="31536000" probability="0.017361"/>
    <flow id="flow_e4_to_e2" type="car" fromJunction="e4" toJunction="e2" begin="0" end="31536000" probability="0.017361"/>
    <flow id="flow_e4_to_e3" type="car" fromJunction="e4" toJunction="e3" begin="0" end="31536000" probability="0.017361"/>
    <flow id="flow_e4_to_e5" type="car" fromJunction="e4" toJunction="e5" begin="0" end="31536000" probability="0.017361"/>
    <flow id="flow_e4_to_e6" type="car" fromJunction="e4" toJunction="e6" begin="0" end="31536000" probability="0.017361"/>
    <flow id="flow_e4_to_e7" type="car" fromJunction="e4" toJunction="e7" begin="0" end="31536000" probability="0.017361"/>
    <flow id="flow_e4_to_e8" type="car" fromJunction="e4" toJunction="e8" begin="0" end="31536000" probability="0.017361"/>
    <flow id="flow_e4_to_e9" type="car" fromJunction="e4" toJunction="e9" begin="0" end="31536000" probability="0.017361"/>
    <flow id="flow_e5_to_e1" type="car" fromJunction="e5" toJunction="e1" begin="0" end="31536000" probability="0.017361"/>
    <flow id="flow_e5_to_e2" type="car" fromJunction="e5" toJunction="e2" begin="0" end="31536000" probability="0.017361"/>
    <flow id="flow_e5_to_e3" type="car" fromJunction="e5" toJunction="e3" begin="0" end="31536000" probability="0.017361"/>
    <flow id="flow_e5_to_e4" type="car" fromJunction="e5" toJunction="e4" begin="0" end="31536000" probability="0.017361"/>
    <flow id="flow_e5_to_e6" type="car" fromJunction="e5" toJunction="e6" begin="0" end="31536000" probability="0.017361"/>
    <flow id="flow_e5_to_e7" type="car" fromJunction="e5" toJunction="e7" begin="0" end="31536000" probability="0.017361"/>
    <flow id="flow_e5_to_e8" type="car" fromJunction="e5" toJunction="e8" begin="0" end="31536000" probability="0.017361"/>
    <flow id="flow_e5_to_e9" type="car" fromJunction="e5" toJunction="e9" begin="0" end="31536000" probability="0.017361"/>
    <flow id="flow_e6_to_e1" type="car" fromJunction="e6" toJunction="e1" begin="0" end="31536000" probability="0.017361"/>
    <flow id="flow_e6_to_e2" type="car" fromJunction="e6" toJunction="e2" begin="0" end="31536000" probability="0.017361"/>
    <flow id="flow_e6_to_e3" type="car" fromJunction="e6" toJunction="e3" begin="0" end="31536000" probability="0.017361"/>
    <flow id="flow_e6_to_e4" type="car" fromJunction="e6" toJunction="e4" begin="0" end="31536000" probability="0.017361"/>
    <flow id="flow_e6_to_e5" type="car" fromJunction="e6" toJunction="e5" begin="0" end="31536000" probability="0.017361"/>
    <flow id="flow_e6_to_e7" type="car" fromJunction="e6" toJunction="e7" begin="0" end="31536000" probability="0.017361"/>
    <flow id="flow_e6_to_e8" type="car" fromJunction="e6" toJunction="e8" begin="0" end="31536000" probability="0.017361"/>
    <flow id="flow_e6_to_e9" type="car" fromJunction="e6" toJunction="e9" begin="0" end="31536000" probability="0.017361"/>
    <flow id="flow_e7_to_e1" type="car" fromJunction="e7" toJunction="e1" begin="0" end="31536000" probability="0.017361"/>
    <flow id="flow_e7_to_e2" type="car" fromJunction="e7" toJunction="e2" begin="0" end="31536000" probability="0.017361"/>
    <flow id="flow_e7_to_e3" type="car" fromJunction="e7" toJunction="e3" begin="0" end="31536000" probability="0.017361"/>
    <flow id="flow_e7_to_e4" type="car" fromJunction="e7" toJunction="e4" begin="0" end="31536000" probability="0.017361"/>
    <flow id="flow_e7_to_e5" type="car" fromJunction="e7" toJunction="e5" begin="0" end="31536000" probability="0.017361"/>
    <flow id="flow_e7_to_e6" type="car" fromJunction="e7" toJunction="e6" begin="0" end="31536000" probability="0.017361"/>
    <flow id="flow_e7_to_e8" type="car" fromJunction="e7" toJunction="e8" begin="0" end="31536000" probability="0.017361"/>
    <flow id="flow_e7_to_e9" type="car" fromJunction="e7" toJunction="e9" begin="0" end="31536000" probability="0.017361"/>
    <flow id="flow_e8_to_e1" type="car" fromJunction="e8" toJunction="e1" begin="0" end="31536000" probability="0.017361"/>
    <flow id="flow_e8_to_e2" type="car" fromJunction="e8" toJunction="e2" begin="0" end="31536000" probability="0.017361"/>
    <flow id="flow_e8_to_e3" type="car" fromJunction="e8" toJunction="e3" begin="0" end="31536000" probability="0.017361"/>
    <flow id="flow_e8_to_e4" type="car" fromJunction="e8" toJunction="e4" begin="0" end="31536000" probability="0.017361"/>
    <flow id="flow_e8_to_e5" type="car" fromJunction="e8" toJunction="e5" begin="0" end="31536000" probability="0.017361"/>
    <flow id="flow_e8_to_e6" type="car" fromJunction="e8" toJunction="e6" begin="0" end="31536000" probability="0.017361"/>
    <flow id="flow_e8_to_e7" type="car" fromJunction="e8" toJunction="e7" begin="0" end="31536000" probability="0.017361"/>
    <flow id="flow_e8_to_e9" type="car" fromJunction="e8" toJunction="e9" begin="0" end="31536000" probability="0.017361"/>
    <flow id="flow_e9_to_e1" type="car" fromJunction="e9" toJunction="e1" begin="0" end="31536000" probability="0.017361"/>
    <flow id="flow_e9_to_e2" type="car" fromJunction="e9" toJunction="e2" begin="0" end="31536000" probability="0.017361"/>
    <flow id="flow_e9_to_e3" type="car" fromJunction="e9" toJunction="e3" begin="0" end="31536000" probability="0.017361"/>
    <flow id="flow_e9_to_e4" type="car" fromJunction="e9" toJunction="e4" begin="0" end="31536000" probability="0.017361"/>
    <flow id="flow_e9_to_e5" type="car" fromJunction="e9" toJunction="e5" begin="0" end="31536000" probability="0.017361"/>
    <flow id="flow_e9_to_e6" type="car" fromJunction="e9" toJunction="e6" begin="0" end="31536000" probability="0.017361"/>
    <flow id="flow_e9_to_e7" type="car" fromJunction="e9" toJunction="e7" begin="0" end="31536000" probability="0.017361"/>
    <flow id="flow_e9_to_e8" type="car" fromJunction="e9" toJunction="e8" begin="0" end="31536000" probability="0.017361"/>

    
    <flow id="flow_e1_to_p1" type="car" fromJunction="e1" toJunction="p1" begin="0" end="31536000" probability="0.008681"/>
    <flow id="flow_e1_to_p3" type="car" fromJunction="e1" toJunction="p3" begin="0" end="31536000" probability="0.008681"/>
    <flow id="flow_e1_to_p5" type="car" fromJunction="e1" toJunction="p5" begin="0" end="31536000" probability="0.008681"/>
    <flow id="flow_e1_to_p7" type="car" fromJunction="e1" toJunction="p7" begin="0" end="31536000" probability="0.008681"/>
    <flow id="flow_e1_to_p9" type="car" fromJunction="e1" toJunction="p9" begin="0" end="31536000" probability="0.008681"/>
    <flow id="flow_e1_to_p11" type="car" fromJunction="e1" toJunction="p11" begin="0" end="31536000" probability="0.008681"/>
    <flow id="flow_e2_to_p1" type="car" fromJunction="e2" toJunction="p1" begin="0" end="31536000" probability="0.008681"/>
    <flow id="flow_e2_to_p3" type="car" fromJunction="e2" toJunction="p3" begin="0" end="31536000" probability="0.008681"/>
    <flow id="flow_e2_to_p5" type="car" fromJunction="e2" toJunction="p5" begin="0" end="31536000" probability="0.008681"/>
    <flow id="flow_e2_to_p7" type="car" fromJunction="e2" toJunction="p7" begin="0" end="31536000" probability="0.008681"/>
    <flow id="flow_e2_to_p9" type="car" fromJunction="e2" toJunction="p9" begin="0" end="31536000" probability="0.008681"/>
    <flow id="flow_e2_to_p11" type="car" fromJunction="e2" toJunction="p11" begin="0" end="31536000" probability="0.008681"/>
    <flow id="flow_e3_to_p1" type="car" fromJunction="e3" toJunction="p1" begin="0" end="31536000" probability="0.008681"/>
    <flow id="flow_e3_to_p3" type="car" fromJunction="e3" toJunction="p3" begin="0" end="31536000" probability="0.008681"/>
    <flow id="flow_e3_to_p5" type="car" fromJunction="e3" toJunction="p5" begin="0" end="31536000" probability="0.008681"/>
    <flow id="flow_e3_to_p7" type="car" fromJunction="e3" toJunction="p7" begin="0" end="31536000" probability="0.008681"/>
    <flow id="flow_e3_to_p9" type="car" fromJunction="e3" toJunction="p9" begin="0" end="31536000" probability="0.008681"/>
    <flow id="flow_e3_to_p11" type="car" fromJunction="e3" toJunction="p11" begin="0" end="31536000" probability="0.008681"/>
    <flow id="flow_e4_to_p1" type="car" fromJunction="e4" toJunction="p1" begin="0" end="31536000" probability="0.008681"/>
    <flow id="flow_e4_to_p3" type="car" fromJunction="e4" toJunction="p3" begin="0" end="31536000" probability="0.008681"/>
    <flow id="flow_e4_to_p5" type="car" fromJunction="e4" toJunction="p5" begin="0" end="31536000" probability="0.008681"/>
    <flow id="flow_e4_to_p7" type="car" fromJunction="e4" toJunction="p7" begin="0" end="31536000" probability="0.008681"/>
    <flow id="flow_e4_to_p9" type="car" fromJunction="e4" toJunction="p9" begin="0" end="31536000" probability="0.008681"/>
    <flow id="flow_e4_to_p11" type="car" fromJunction="e4" toJunction="p11" begin="0" end="31536000" probability="0.008681"/>
    <flow id="flow_e5_to_p1" type="car" fromJunction="e5" toJunction="p1" begin="0" end="31536000" probability="0.008681"/>
    <flow id="flow_e5_to_p3" type="car" fromJunction="e5" toJunction="p3" begin="0" end="31536000" probability="0.008681"/>
    <flow id="flow_e5_to_p5" type="car" fromJunction="e5" toJunction="p5" begin="0" end="31536000" probability="0.008681"/>
    <flow id="flow_e5_to_p7" type="car" fromJunction="e5" toJunction="p7" begin="0" end="31536000" probability="0.008681"/>
    <flow id="flow_e5_to_p9" type="car" fromJunction="e5" toJunction="p9" begin="0" end="31536000" probability="0.008681"/>
    <flow id="flow_e5_to_p11" type="car" fromJunction="e5" toJunction="p11" begin="0" end="31536000" probability="0.008681"/>
    <flow id="flow_e6_to_p1" type="car" fromJunction="e6" toJunction="p1" begin="0" end="31536000" probability="0.008681"/>
    <flow id="flow_e6_to_p3" type="car" fromJunction="e6" toJunction="p3" begin="0" end="31536000" probability="0.008681"/>
    <flow id="flow_e6_to_p5" type="car" fromJunction="e6" toJunction="p5" begin="0" end="31536000" probability="0.008681"/>
    <flow id="flow_e6_to_p7" type="car" fromJunction="e6" toJunction="p7" begin="0" end="31536000" probability="0.008681"/>
    <flow id="flow_e6_to_p9" type="car" fromJunction="e6" toJunction="p9" begin="0" end="31536000" probability="0.008681"/>
    <flow id="flow_e6_to_p11" type="car" fromJunction="e6" toJunction="p11" begin="0" end="31536000" probability="0.008681"/>
    <flow id="flow_e7_to_p1" type="car" fromJunction="e7" toJunction="p1" begin="0" end="31536000" probability="0.008681"/>
    <flow id="flow_e7_to_p3" type="car" fromJunction="e7" toJunction="p3" begin="0" end="31536000" probability="0.008681"/>
    <flow id="flow_e7_to_p5" type="car" fromJunction="e7" toJunction="p5" begin="0" end="31536000" probability="0.008681"/>
    <flow id="flow_e7_to_p7" type="car" fromJunction="e7" toJunction="p7" begin="0" end="31536000" probability="0.008681"/>
    <flow id="flow_e7_to_p9" type="car" fromJunction="e7" toJunction="p9" begin="0" end="31536000" probability="0.008681"/>
    <flow id="flow_e7_to_p11" type="car" fromJunction="e7" toJunction="p11" begin="0" end="31536000" probability="0.008681"/>
    <flow id="flow_e8_to_p1" type="car" fromJunction="e8" toJunction="p1" begin="0" end="31536000" probability="0.008681"/>
    <flow id="flow_e8_to_p3" type="car" fromJunction="e8" toJunction="p3" begin="0" end="31536000" probability="0.008681"/>
    <flow id="flow_e8_to_p5" type="car" fromJunction="e8" toJunction="p5" begin="0" end="31536000" probability="0.008681"/>
    <flow id="flow_e8_to_p7" type="car" fromJunction="e8" toJunction="p7" begin="0" end="31536000" probability="0.008681"/>
    <flow id="flow_e8_to_p9" type="car" fromJunction="e8" toJunction="p9" begin="0" end="31536000" probability="0.008681"/>
    <flow id="flow_e8_to_p11" type="car" fromJunction="e8" toJunction="p11" begin="0" end="31536000" probability="0.008681"/>
    <flow id="flow_e9_to_p1" type="car" fromJunction="e9" toJunction="p1" begin="0" end="31536000" probability="0.008681"/>
    <flow id="flow_e9_to_p3" type="car" fromJunction="e9" toJunction="p3" begin="0" end="31536000" probability="0.008681"/>
    <flow id="flow_e9_to_p5" type="car" fromJunction="e9" toJunction="p5" begin="0" end="31536000" probability="0.008681"/>
    <flow id="flow_e9_to_p7" type="car" fromJunction="e9" toJunction="p7" begin="0" end="31536000" probability="0.008681"/>
    <flow id="flow_e9_to_p9" type="car" fromJunction="e9" toJunction="p9" begin="0" end="31536000" probability="0.008681"/>
    <flow id="flow_e9_to_p11" type="car" fromJunction="e9" toJunction="p11" begin="0" end="31536000" probability="0.008681"/>
</routes>
